* File: netlist.sp.pex
* Created: Fri Jun 13 10:04:52 2025
* Program "Calibre xRC"
* Version "v2019.2_26.18"
* Nominal Temperature: 25C
* Circuit Temperature: 27C
* 
.subckt PM_SRAM_16B_2%XI0/NET33 2 5 9 10 14
c0 9 0 0.00354562f
r1 14 17 22.2222
r2 13 17 81.994
r3 10 13 12.5926
r4 9 13 12.5926
r5 5 17 436.533
r6 2 5 362.812
.ends

.subckt PM_SRAM_16B_2%XI0/NET34 5 7 9 10 14
c0 9 0 0.00354253f
r1 14 20 22.2222
r2 13 20 81.5625
r3 10 13 12.5926
r4 9 13 12.5926
r5 5 20 439.853
r6 5 7 362.812
.ends

.subckt PM_SRAM_16B_2%XI0/NET36 5 7 9 10 14
c0 9 0 0.00354253f
r1 14 17 22.2222
r2 13 17 81.5625
r3 10 13 12.5926
r4 9 13 12.5926
r5 5 7 362.812
r6 5 17 439.853
.ends

.subckt PM_SRAM_16B_2%XI0/NET35 2 5 9 10 14
c0 9 0 0.00354562f
r1 14 17 22.2222
r2 13 17 81.994
r3 10 13 12.5926
r4 9 13 12.5926
r5 5 17 436.533
r6 2 5 362.812
.ends

.subckt PM_SRAM_16B_2%XI1/NET33 2 5 9 10 14
c0 9 0 0.00354562f
r1 14 17 22.2222
r2 13 17 81.994
r3 10 13 12.5926
r4 9 13 12.5926
r5 5 17 436.533
r6 2 5 362.812
.ends

.subckt PM_SRAM_16B_2%XI1/NET34 5 7 9 10 14
c0 9 0 0.00354253f
r1 14 20 22.2222
r2 13 20 81.5625
r3 10 13 12.5926
r4 9 13 12.5926
r5 5 20 439.853
r6 5 7 362.812
.ends

.subckt PM_SRAM_16B_2%XI1/NET36 5 7 9 10 14
c0 9 0 0.00354253f
r1 14 17 22.2222
r2 13 17 81.5625
r3 10 13 12.5926
r4 9 13 12.5926
r5 5 7 362.812
r6 5 17 439.853
.ends

.subckt PM_SRAM_16B_2%XI1/NET35 2 5 9 10 14
c0 9 0 0.00354562f
r1 14 17 22.2222
r2 13 17 81.994
r3 10 13 12.5926
r4 9 13 12.5926
r5 5 17 436.533
r6 2 5 362.812
.ends

.subckt PM_SRAM_16B_2%XI2/NET33 2 5 9 10 14
c0 9 0 0.00354562f
r1 14 17 22.2222
r2 13 17 81.994
r3 10 13 12.5926
r4 9 13 12.5926
r5 5 17 436.533
r6 2 5 362.812
.ends

.subckt PM_SRAM_16B_2%XI2/NET34 5 7 9 10 14
c0 9 0 0.00354253f
r1 14 20 22.2222
r2 13 20 81.5625
r3 10 13 12.5926
r4 9 13 12.5926
r5 5 20 439.853
r6 5 7 362.812
.ends

.subckt PM_SRAM_16B_2%XI2/NET36 5 7 9 10 14
c0 9 0 0.00354253f
r1 14 17 22.2222
r2 13 17 81.5625
r3 10 13 12.5926
r4 9 13 12.5926
r5 5 7 362.812
r6 5 17 439.853
.ends

.subckt PM_SRAM_16B_2%XI2/NET35 2 5 9 10 14
c0 9 0 0.00354562f
r1 14 17 22.2222
r2 13 17 81.994
r3 10 13 12.5926
r4 9 13 12.5926
r5 5 17 436.533
r6 2 5 362.812
.ends

.subckt PM_SRAM_16B_2%XI3/NET33 2 5 9 10 14
c0 9 0 0.00354562f
r1 14 17 22.2222
r2 13 17 81.994
r3 10 13 12.5926
r4 9 13 12.5926
r5 5 17 436.533
r6 2 5 362.812
.ends

.subckt PM_SRAM_16B_2%XI3/NET34 5 7 9 10 14
c0 9 0 0.00354253f
r1 14 20 22.2222
r2 13 20 81.5625
r3 10 13 12.5926
r4 9 13 12.5926
r5 5 20 439.853
r6 5 7 362.812
.ends

.subckt PM_SRAM_16B_2%XI3/NET36 5 7 9 10 14
c0 9 0 0.00354253f
r1 14 17 22.2222
r2 13 17 81.5625
r3 10 13 12.5926
r4 9 13 12.5926
r5 5 7 362.812
r6 5 17 439.853
.ends

.subckt PM_SRAM_16B_2%XI3/NET35 2 5 9 10 14
c0 9 0 0.00354562f
r1 14 17 22.2222
r2 13 17 81.994
r3 10 13 12.5926
r4 9 13 12.5926
r5 5 17 436.533
r6 2 5 362.812
.ends

.subckt PM_SRAM_16B_2%XI4/NET33 2 5 9 10 14
c0 9 0 0.00354562f
r1 14 17 22.2222
r2 13 17 81.994
r3 10 13 12.5926
r4 9 13 12.5926
r5 5 17 436.533
r6 2 5 362.812
.ends

.subckt PM_SRAM_16B_2%XI4/NET34 5 7 9 10 14
c0 9 0 0.00354253f
r1 14 20 22.2222
r2 13 20 81.5625
r3 10 13 12.5926
r4 9 13 12.5926
r5 5 20 439.853
r6 5 7 362.812
.ends

.subckt PM_SRAM_16B_2%XI4/NET36 5 7 9 10 14
c0 9 0 0.00354253f
r1 14 17 22.2222
r2 13 17 81.5625
r3 10 13 12.5926
r4 9 13 12.5926
r5 5 7 362.812
r6 5 17 439.853
.ends

.subckt PM_SRAM_16B_2%XI4/NET35 2 5 9 10 14
c0 9 0 0.00354562f
r1 14 17 22.2222
r2 13 17 81.994
r3 10 13 12.5926
r4 9 13 12.5926
r5 5 17 436.533
r6 2 5 362.812
.ends

.subckt PM_SRAM_16B_2%XI5/NET33 2 5 9 10 14
c0 9 0 0.00354562f
r1 14 17 22.2222
r2 13 17 81.994
r3 10 13 12.5926
r4 9 13 12.5926
r5 5 17 436.533
r6 2 5 362.812
.ends

.subckt PM_SRAM_16B_2%XI5/NET34 5 7 9 10 14
c0 9 0 0.00354253f
r1 14 20 22.2222
r2 13 20 81.5625
r3 10 13 12.5926
r4 9 13 12.5926
r5 5 20 439.853
r6 5 7 362.812
.ends

.subckt PM_SRAM_16B_2%XI5/NET36 5 7 9 10 14
c0 9 0 0.00354253f
r1 14 17 22.2222
r2 13 17 81.5625
r3 10 13 12.5926
r4 9 13 12.5926
r5 5 7 362.812
r6 5 17 439.853
.ends

.subckt PM_SRAM_16B_2%XI5/NET35 2 5 9 10 14
c0 9 0 0.00354562f
r1 14 17 22.2222
r2 13 17 81.994
r3 10 13 12.5926
r4 9 13 12.5926
r5 5 17 436.533
r6 2 5 362.812
.ends

.subckt PM_SRAM_16B_2%XI6/NET33 2 5 9 10 14
c0 9 0 0.00354562f
r1 14 17 22.2222
r2 13 17 81.994
r3 10 13 12.5926
r4 9 13 12.5926
r5 5 17 436.533
r6 2 5 362.812
.ends

.subckt PM_SRAM_16B_2%XI6/NET34 5 7 9 10 14
c0 9 0 0.00354253f
r1 14 20 22.2222
r2 13 20 81.5625
r3 10 13 12.5926
r4 9 13 12.5926
r5 5 20 439.853
r6 5 7 362.812
.ends

.subckt PM_SRAM_16B_2%XI6/NET36 5 7 9 10 14
c0 9 0 0.00354253f
r1 14 17 22.2222
r2 13 17 81.5625
r3 10 13 12.5926
r4 9 13 12.5926
r5 5 7 362.812
r6 5 17 439.853
.ends

.subckt PM_SRAM_16B_2%XI6/NET35 2 5 9 10 14
c0 9 0 0.00354562f
r1 14 17 22.2222
r2 13 17 81.994
r3 10 13 12.5926
r4 9 13 12.5926
r5 5 17 436.533
r6 2 5 362.812
.ends

.subckt PM_SRAM_16B_2%XI7/NET33 2 5 9 10 14
c0 9 0 0.00354562f
r1 14 17 22.2222
r2 13 17 81.994
r3 10 13 12.5926
r4 9 13 12.5926
r5 5 17 436.533
r6 2 5 362.812
.ends

.subckt PM_SRAM_16B_2%XI7/NET34 5 7 9 10 14
c0 9 0 0.00354253f
r1 14 20 22.2222
r2 13 20 81.5625
r3 10 13 12.5926
r4 9 13 12.5926
r5 5 20 439.853
r6 5 7 362.812
.ends

.subckt PM_SRAM_16B_2%XI7/NET36 5 7 9 10 14
c0 9 0 0.00354253f
r1 14 17 22.2222
r2 13 17 81.5625
r3 10 13 12.5926
r4 9 13 12.5926
r5 5 7 362.812
r6 5 17 439.853
.ends

.subckt PM_SRAM_16B_2%XI7/NET35 2 5 9 10 14
c0 9 0 0.00354562f
r1 14 17 22.2222
r2 13 17 81.994
r3 10 13 12.5926
r4 9 13 12.5926
r5 5 17 436.533
r6 2 5 362.812
.ends

.subckt PM_SRAM_16B_2%XI8/NET33 2 5 9 10 14
c0 9 0 0.00354562f
r1 14 17 22.2222
r2 13 17 81.994
r3 10 13 12.5926
r4 9 13 12.5926
r5 5 17 436.533
r6 2 5 362.812
.ends

.subckt PM_SRAM_16B_2%XI8/NET34 5 7 9 10 14
c0 9 0 0.00354253f
r1 14 20 22.2222
r2 13 20 81.5625
r3 10 13 12.5926
r4 9 13 12.5926
r5 5 20 439.853
r6 5 7 362.812
.ends

.subckt PM_SRAM_16B_2%XI8/NET36 5 7 9 10 14
c0 9 0 0.00354253f
r1 14 17 22.2222
r2 13 17 81.5625
r3 10 13 12.5926
r4 9 13 12.5926
r5 5 7 362.812
r6 5 17 439.853
.ends

.subckt PM_SRAM_16B_2%XI8/NET35 2 5 9 10 14
c0 9 0 0.00354562f
r1 14 17 22.2222
r2 13 17 81.994
r3 10 13 12.5926
r4 9 13 12.5926
r5 5 17 436.533
r6 2 5 362.812
.ends

.subckt PM_SRAM_16B_2%XI9/NET33 2 5 9 10 14
c0 9 0 0.00354562f
r1 14 17 22.2222
r2 13 17 81.994
r3 10 13 12.5926
r4 9 13 12.5926
r5 5 17 436.533
r6 2 5 362.812
.ends

.subckt PM_SRAM_16B_2%XI9/NET34 5 7 9 10 14
c0 9 0 0.00354253f
r1 14 20 22.2222
r2 13 20 81.5625
r3 10 13 12.5926
r4 9 13 12.5926
r5 5 20 439.853
r6 5 7 362.812
.ends

.subckt PM_SRAM_16B_2%XI9/NET36 5 7 9 10 14
c0 9 0 0.00354253f
r1 14 17 22.2222
r2 13 17 81.5625
r3 10 13 12.5926
r4 9 13 12.5926
r5 5 7 362.812
r6 5 17 439.853
.ends

.subckt PM_SRAM_16B_2%XI9/NET35 2 5 9 10 14
c0 9 0 0.00354562f
r1 14 17 22.2222
r2 13 17 81.994
r3 10 13 12.5926
r4 9 13 12.5926
r5 5 17 436.533
r6 2 5 362.812
.ends

.subckt PM_SRAM_16B_2%XI10/NET33 2 5 9 10 14
c0 9 0 0.00354562f
r1 14 17 22.2222
r2 13 17 81.994
r3 10 13 12.5926
r4 9 13 12.5926
r5 5 17 436.533
r6 2 5 362.812
.ends

.subckt PM_SRAM_16B_2%XI10/NET34 5 7 9 10 14
c0 9 0 0.00354253f
r1 14 20 22.2222
r2 13 20 81.5625
r3 10 13 12.5926
r4 9 13 12.5926
r5 5 20 439.853
r6 5 7 362.812
.ends

.subckt PM_SRAM_16B_2%XI10/NET36 5 7 9 10 14
c0 9 0 0.00354253f
r1 14 17 22.2222
r2 13 17 81.5625
r3 10 13 12.5926
r4 9 13 12.5926
r5 5 7 362.812
r6 5 17 439.853
.ends

.subckt PM_SRAM_16B_2%XI10/NET35 2 5 9 10 14
c0 9 0 0.00354562f
r1 14 17 22.2222
r2 13 17 81.994
r3 10 13 12.5926
r4 9 13 12.5926
r5 5 17 436.533
r6 2 5 362.812
.ends

.subckt PM_SRAM_16B_2%XI11/NET33 2 5 9 10 14
c0 9 0 0.00354562f
r1 14 17 22.2222
r2 13 17 81.994
r3 10 13 12.5926
r4 9 13 12.5926
r5 5 17 436.533
r6 2 5 362.812
.ends

.subckt PM_SRAM_16B_2%XI11/NET34 5 7 9 10 14
c0 9 0 0.00354253f
r1 14 20 22.2222
r2 13 20 81.5625
r3 10 13 12.5926
r4 9 13 12.5926
r5 5 20 439.853
r6 5 7 362.812
.ends

.subckt PM_SRAM_16B_2%XI11/NET36 5 7 9 10 14
c0 9 0 0.00354253f
r1 14 17 22.2222
r2 13 17 81.5625
r3 10 13 12.5926
r4 9 13 12.5926
r5 5 7 362.812
r6 5 17 439.853
.ends

.subckt PM_SRAM_16B_2%XI11/NET35 2 5 9 10 14
c0 9 0 0.00354562f
r1 14 17 22.2222
r2 13 17 81.994
r3 10 13 12.5926
r4 9 13 12.5926
r5 5 17 436.533
r6 2 5 362.812
.ends

.subckt PM_SRAM_16B_2%XI12/NET33 2 5 9 10 14
c0 9 0 0.00354562f
r1 14 17 22.2222
r2 13 17 81.994
r3 10 13 12.5926
r4 9 13 12.5926
r5 5 17 436.533
r6 2 5 362.812
.ends

.subckt PM_SRAM_16B_2%XI12/NET34 5 7 9 10 14
c0 9 0 0.00354253f
r1 14 20 22.2222
r2 13 20 81.5625
r3 10 13 12.5926
r4 9 13 12.5926
r5 5 20 439.853
r6 5 7 362.812
.ends

.subckt PM_SRAM_16B_2%XI12/NET36 5 7 9 10 14
c0 9 0 0.00354253f
r1 14 17 22.2222
r2 13 17 81.5625
r3 10 13 12.5926
r4 9 13 12.5926
r5 5 7 362.812
r6 5 17 439.853
.ends

.subckt PM_SRAM_16B_2%XI12/NET35 2 5 9 10 14
c0 9 0 0.00354562f
r1 14 17 22.2222
r2 13 17 81.994
r3 10 13 12.5926
r4 9 13 12.5926
r5 5 17 436.533
r6 2 5 362.812
.ends

.subckt PM_SRAM_16B_2%XI13/NET33 2 5 9 10 14
c0 9 0 0.00354562f
r1 14 17 22.2222
r2 13 17 81.994
r3 10 13 12.5926
r4 9 13 12.5926
r5 5 17 436.533
r6 2 5 362.812
.ends

.subckt PM_SRAM_16B_2%XI13/NET34 5 7 9 10 14
c0 9 0 0.00354253f
r1 14 20 22.2222
r2 13 20 81.5625
r3 10 13 12.5926
r4 9 13 12.5926
r5 5 20 439.853
r6 5 7 362.812
.ends

.subckt PM_SRAM_16B_2%XI13/NET36 5 7 9 10 14
c0 9 0 0.00354253f
r1 14 17 22.2222
r2 13 17 81.5625
r3 10 13 12.5926
r4 9 13 12.5926
r5 5 7 362.812
r6 5 17 439.853
.ends

.subckt PM_SRAM_16B_2%XI13/NET35 2 5 9 10 14
c0 9 0 0.00354562f
r1 14 17 22.2222
r2 13 17 81.994
r3 10 13 12.5926
r4 9 13 12.5926
r5 5 17 436.533
r6 2 5 362.812
.ends

.subckt PM_SRAM_16B_2%XI14/NET33 2 5 9 10 14
c0 9 0 0.00354562f
r1 14 17 22.2222
r2 13 17 81.994
r3 10 13 12.5926
r4 9 13 12.5926
r5 5 17 436.533
r6 2 5 362.812
.ends

.subckt PM_SRAM_16B_2%XI14/NET34 5 7 9 10 14
c0 9 0 0.00354253f
r1 14 20 22.2222
r2 13 20 81.5625
r3 10 13 12.5926
r4 9 13 12.5926
r5 5 20 439.853
r6 5 7 362.812
.ends

.subckt PM_SRAM_16B_2%XI14/NET36 5 7 9 10 14
c0 9 0 0.00354253f
r1 14 17 22.2222
r2 13 17 81.5625
r3 10 13 12.5926
r4 9 13 12.5926
r5 5 7 362.812
r6 5 17 439.853
.ends

.subckt PM_SRAM_16B_2%XI14/NET35 2 5 9 10 14
c0 9 0 0.00354562f
r1 14 17 22.2222
r2 13 17 81.994
r3 10 13 12.5926
r4 9 13 12.5926
r5 5 17 436.533
r6 2 5 362.812
.ends

.subckt PM_SRAM_16B_2%XI15/NET33 2 5 9 10 14
c0 9 0 0.00354562f
r1 14 17 22.2222
r2 13 17 81.994
r3 10 13 12.5926
r4 9 13 12.5926
r5 5 17 436.533
r6 2 5 362.812
.ends

.subckt PM_SRAM_16B_2%XI15/NET34 5 7 9 10 14
c0 9 0 0.00354253f
r1 14 20 22.2222
r2 13 20 81.5625
r3 10 13 12.5926
r4 9 13 12.5926
r5 5 20 439.853
r6 5 7 362.812
.ends

.subckt PM_SRAM_16B_2%XI15/NET36 5 7 9 10 14
c0 9 0 0.00354253f
r1 14 17 22.2222
r2 13 17 81.5625
r3 10 13 12.5926
r4 9 13 12.5926
r5 5 7 362.812
r6 5 17 439.853
.ends

.subckt PM_SRAM_16B_2%XI15/NET35 2 5 9 10 14
c0 9 0 0.00354562f
r1 14 17 22.2222
r2 13 17 81.994
r3 10 13 12.5926
r4 9 13 12.5926
r5 5 17 436.533
r6 2 5 362.812
.ends

.subckt PM_SRAM_16B_2%BL<15> 1 2 34
c4 1 0 0.00346086f
r5 5 34 23.9969
r6 2 5 12.5926
r7 1 5 12.5926
.ends

.subckt PM_SRAM_16B_2%BLN<15> 1 6 63
c4 1 0 0.00481882f
r5 6 63 30.1698
r6 1 63 40.0463
.ends

.subckt PM_SRAM_16B_2%BL<14> 1 2 32
c4 1 0 0.00349485f
r5 5 32 23.8117
r6 2 5 12.5926
r7 1 5 12.5926
.ends

.subckt PM_SRAM_16B_2%BLN<14> 1 6 59
c4 1 0 0.00481882f
r5 6 59 30.2932
r6 1 59 39.9228
.ends

.subckt PM_SRAM_16B_2%BL<13> 1 2 32
c4 1 0 0.00349485f
r5 5 32 22.9475
r6 2 5 12.5926
r7 1 5 12.5926
.ends

.subckt PM_SRAM_16B_2%BLN<13> 1 6 59
c4 1 0 0.00481882f
r5 6 59 29.7994
r6 1 59 40.4167
.ends

.subckt PM_SRAM_16B_2%BL<12> 1 2 34
c4 1 0 0.00349485f
r5 5 34 23.3796
r6 2 5 12.5926
r7 1 5 12.5926
.ends

.subckt PM_SRAM_16B_2%BLN<12> 1 6 63
c4 1 0 0.00481882f
r5 6 63 29.9846
r6 1 63 40.2315
.ends

.subckt PM_SRAM_16B_2%BL<11> 1 2 34
c4 1 0 0.00349485f
r5 5 34 23.5031
r6 2 5 12.5926
r7 1 5 12.5926
.ends

.subckt PM_SRAM_16B_2%BLN<11> 1 6 63
c4 1 0 0.00481882f
r5 6 63 29.9228
r6 1 63 40.2932
.ends

.subckt PM_SRAM_16B_2%BL<10> 1 2 32
c4 1 0 0.00349485f
r5 5 32 23.8117
r6 2 5 12.5926
r7 1 5 12.5926
.ends

.subckt PM_SRAM_16B_2%BLN<10> 1 6 59
c4 1 0 0.00481882f
r5 6 59 29.9846
r6 1 59 40.2315
.ends

.subckt PM_SRAM_16B_2%BL<9> 1 2 32
c4 1 0 0.00349485f
r5 5 32 23.5031
r6 2 5 12.5926
r7 1 5 12.5926
.ends

.subckt PM_SRAM_16B_2%BLN<9> 1 6 59
c4 1 0 0.00481882f
r5 6 59 29.9846
r6 1 59 40.2315
.ends

.subckt PM_SRAM_16B_2%BL<8> 1 2 34
c4 1 0 0.00349485f
r5 5 34 23.6265
r6 2 5 12.5926
r7 1 5 12.5926
.ends

.subckt PM_SRAM_16B_2%BLN<8> 1 6 63
c4 1 0 0.00481882f
r5 6 63 29.7994
r6 1 63 40.4167
.ends

.subckt PM_SRAM_16B_2%BL<7> 1 2 34
c4 1 0 0.00349485f
r5 5 34 23.6265
r6 2 5 12.5926
r7 1 5 12.5926
.ends

.subckt PM_SRAM_16B_2%BLN<7> 1 6 63
c4 1 0 0.00481882f
r5 6 63 30.108
r6 1 63 40.108
.ends

.subckt PM_SRAM_16B_2%BL<6> 1 2 32
c4 1 0 0.00349485f
r5 5 32 23.9352
r6 2 5 12.5926
r7 1 5 12.5926
.ends

.subckt PM_SRAM_16B_2%BLN<6> 1 6 59
c4 1 0 0.00481882f
r5 6 59 29.9846
r6 1 59 40.2315
.ends

.subckt PM_SRAM_16B_2%BL<5> 1 2 32
c4 1 0 0.00349485f
r5 5 32 23.9352
r6 2 5 12.5926
r7 1 5 12.5926
.ends

.subckt PM_SRAM_16B_2%BLN<5> 1 6 59
c4 1 0 0.00481882f
r5 6 59 29.9228
r6 1 59 40.2932
.ends

.subckt PM_SRAM_16B_2%BL<4> 1 2 34
c4 1 0 0.00349485f
r5 5 34 23.9352
r6 2 5 12.5926
r7 1 5 12.5926
.ends

.subckt PM_SRAM_16B_2%BLN<4> 1 6 63
c4 1 0 0.00481882f
r5 6 63 30.2315
r6 1 63 39.9846
.ends

.subckt PM_SRAM_16B_2%BL<3> 1 2 34
c4 1 0 0.00349485f
r5 5 34 23.6265
r6 2 5 12.5926
r7 1 5 12.5926
.ends

.subckt PM_SRAM_16B_2%BLN<3> 1 6 63
c4 1 0 0.00481882f
r5 6 63 29.9846
r6 1 63 40.2315
.ends

.subckt PM_SRAM_16B_2%BL<2> 1 2 32
c4 1 0 0.00349485f
r5 5 32 23.5648
r6 2 5 12.5926
r7 1 5 12.5926
.ends

.subckt PM_SRAM_16B_2%BLN<2> 1 6 59
c4 1 0 0.00481882f
r5 6 59 29.9846
r6 1 59 40.2315
.ends

.subckt PM_SRAM_16B_2%BL<1> 1 2 32
c4 1 0 0.00349485f
r5 5 32 23.3179
r6 2 5 12.5926
r7 1 5 12.5926
.ends

.subckt PM_SRAM_16B_2%BLN<1> 1 6 59
c4 1 0 0.00481882f
r5 6 59 30.0463
r6 1 59 40.1698
.ends

.subckt PM_SRAM_16B_2%BL<0> 1 2 34
c4 1 0 0.00349485f
r5 5 34 23.6265
r6 2 5 12.5926
r7 1 5 12.5926
.ends

.subckt PM_SRAM_16B_2%BLN<0> 1 6 63
c4 1 0 0.00476956f
r5 6 63 30.0463
r6 1 63 40.1698
.ends

.subckt PM_SRAM_16B_2%VSS 45 50 51 55 60 61 63 65 85 163 168 169 173 179 181 183
+ 203 364 369 370 374 380 382 384 404 482 487 488 492 498 500 502 522 800 805
+ 806 810 816 818 820 840 918 923 924 928 934 936 938 958 1119 1124 1125 1129
+ 1135 1137 1139 1159 1237 1242 1243 1247 1253 1255 1257 1277 1555 1560 1561
+ 1565 1571 1573 1575 1595 1673 1678 1679 1683 1689 1691 1693 1713 1874 1879
+ 1880 1884 1890 1892 1894 1914 1992 1997 1998 2002 2008 2010 2012 2032 2310
+ 2315 2316 2320 2326 2328 2330 2350 2428 2433 2434 2438 2444 2446 2448 2468
+ 2629 2634 2635 2639 2645 2647 2649 2669 2747 2752 2753 2757 2763 2765 2767
+ 2787 3815
c208 3815 0 0.0935835f
c209 2752 0 0.00216753f
c210 2747 0 0.00170373f
c211 2645 0 0.0023097f
c212 2634 0 0.00216753f
c213 2629 0 0.00170373f
c214 2444 0 0.0023097f
c215 2433 0 0.00216753f
c216 2428 0 0.00170373f
c217 2326 0 0.0023097f
c218 2315 0 0.00216753f
c219 2310 0 0.00170373f
c220 2008 0 0.0023097f
c221 1997 0 0.00216753f
c222 1992 0 0.00170373f
c223 1890 0 0.0023097f
c224 1879 0 0.00216753f
c225 1874 0 0.00170373f
c226 1689 0 0.0023097f
c227 1678 0 0.00216753f
c228 1673 0 0.00170373f
c229 1571 0 0.0023097f
c230 1560 0 0.00216753f
c231 1555 0 0.00170373f
c232 1253 0 0.0023097f
c233 1242 0 0.00216753f
c234 1135 0 0.0023097f
c235 1124 0 0.00216753f
c236 934 0 0.0023097f
c237 923 0 0.00216753f
c238 816 0 0.0023097f
c239 805 0 0.00216753f
c240 498 0 0.0023097f
c241 487 0 0.00216753f
c242 380 0 0.0023097f
c243 369 0 0.00216753f
c244 179 0 0.0023097f
c245 168 0 0.00216753f
c246 61 0 0.0023097f
c247 50 0 0.00216753f
r248 2767 2787 1.85185
r249 2765 2767 36.284
r250 2757 2787 73.7092
r251 2756 2765 57.7833
r252 2753 2756 12.5926
r253 2752 2756 12.5926
r254 2747 2787 60.3759
r255 2746 2765 4.81481
r256 2746 2763 16.1574
r257 2744 2767 4.81481
r258 2719 2746 29.4074
r259 2719 2744 11.0741
r260 2649 2669 1.85185
r261 2647 2649 36.284
r262 2645 2744 16.1574
r263 2639 2669 73.7092
r264 2638 2647 57.7833
r265 2635 2638 12.5926
r266 2634 2638 12.5926
r267 2629 2669 60.3759
r268 2628 2647 4.81481
r269 2628 2645 16.1574
r270 2626 2649 4.81481
r271 2601 2626 11.0741
r272 2599 2601 18.3333
r273 2599 2719 8.95062
r274 2599 2628 11.0741
r275 2448 2468 1.85185
r276 2446 2448 36.284
r277 2444 2626 16.1574
r278 2438 2468 73.7092
r279 2437 2446 57.7833
r280 2434 2437 12.5926
r281 2433 2437 12.5926
r282 2428 2468 60.3759
r283 2427 2446 4.81481
r284 2427 2444 16.1574
r285 2425 2448 4.81481
r286 2400 2425 11.0741
r287 2398 2400 18.3333
r288 2398 2601 8.95062
r289 2398 2427 11.0741
r290 2330 2350 1.85185
r291 2328 2330 36.284
r292 2326 2425 16.1574
r293 2320 2350 73.7092
r294 2319 2328 57.7833
r295 2316 2319 12.5926
r296 2315 2319 12.5926
r297 2310 2350 60.3759
r298 2309 2328 4.81481
r299 2309 2326 16.1574
r300 2307 2330 4.81481
r301 2282 2307 11.0741
r302 2280 2282 18.3333
r303 2280 2400 8.95062
r304 2280 2309 11.0741
r305 2012 2032 1.85185
r306 2010 2012 36.284
r307 2008 2307 16.1574
r308 2002 2032 73.7092
r309 2001 2010 57.7833
r310 1998 2001 12.5926
r311 1997 2001 12.5926
r312 1992 2032 60.3759
r313 1991 2010 4.81481
r314 1991 2008 16.1574
r315 1989 2012 4.81481
r316 1964 1989 11.0741
r317 1962 1964 18.3333
r318 1962 2282 8.95062
r319 1962 1991 11.0741
r320 1894 1914 1.85185
r321 1892 1894 36.284
r322 1890 1989 16.1574
r323 1884 1914 73.7092
r324 1883 1892 57.7833
r325 1880 1883 12.5926
r326 1879 1883 12.5926
r327 1874 1914 60.3759
r328 1873 1892 4.81481
r329 1873 1890 16.1574
r330 1871 1894 4.81481
r331 1846 1871 11.0741
r332 1844 1846 18.3333
r333 1844 1964 8.95062
r334 1844 1873 11.0741
r335 1693 1713 1.85185
r336 1691 1693 36.284
r337 1689 1871 16.1574
r338 1683 1713 73.7092
r339 1682 1691 57.7833
r340 1679 1682 12.5926
r341 1678 1682 12.5926
r342 1673 1713 60.3759
r343 1672 1691 4.81481
r344 1672 1689 16.1574
r345 1670 1693 4.81481
r346 1645 1670 11.0741
r347 1643 1645 18.3333
r348 1643 1846 8.95062
r349 1643 1672 11.0741
r350 1575 1595 1.85185
r351 1573 1575 36.284
r352 1571 1670 16.1574
r353 1565 1595 73.7092
r354 1564 1573 57.7833
r355 1561 1564 12.5926
r356 1560 1564 12.5926
r357 1555 1595 60.3759
r358 1554 1573 4.81481
r359 1554 1571 16.1574
r360 1552 1575 4.81481
r361 1527 1552 11.0741
r362 1525 1527 18.3333
r363 1525 1645 8.95062
r364 1525 1554 11.0741
r365 1257 1277 1.85185
r366 1255 1257 36.284
r367 1253 1552 16.1574
r368 1247 1277 73.7092
r369 1246 1255 57.7833
r370 1243 1246 12.5926
r371 1242 1246 12.5926
r372 1237 1277 60.3759
r373 1236 1255 4.81481
r374 1236 1253 16.1574
r375 1234 1257 4.81481
r376 1209 1234 11.0741
r377 1207 1209 18.3333
r378 1207 1527 8.95062
r379 1207 1236 11.0741
r380 1139 1159 1.85185
r381 1137 1139 36.284
r382 1135 1234 16.1574
r383 1129 1159 73.7092
r384 1128 1137 57.7833
r385 1125 1128 12.5926
r386 1124 1128 12.5926
r387 1119 1159 60.3759
r388 1118 1137 4.81481
r389 1118 1135 16.1574
r390 1116 1139 4.81481
r391 1091 1116 11.0741
r392 1089 1091 18.3333
r393 1089 1209 8.95062
r394 1089 1118 11.0741
r395 938 958 1.85185
r396 936 938 36.284
r397 934 1116 16.1574
r398 928 958 73.7092
r399 927 936 57.7833
r400 924 927 12.5926
r401 923 927 12.5926
r402 918 958 60.3759
r403 917 936 4.81481
r404 917 934 16.1574
r405 915 938 4.81481
r406 890 915 11.0741
r407 888 890 18.3333
r408 888 1091 8.95062
r409 888 917 11.0741
r410 820 840 1.85185
r411 818 820 36.284
r412 816 915 16.1574
r413 810 840 73.7092
r414 809 818 57.7833
r415 806 809 12.5926
r416 805 809 12.5926
r417 800 840 60.3759
r418 799 818 4.81481
r419 799 816 16.1574
r420 797 820 4.81481
r421 772 797 11.0741
r422 770 772 18.3333
r423 770 890 8.95062
r424 770 799 11.0741
r425 502 522 1.85185
r426 500 502 36.284
r427 498 797 16.1574
r428 492 522 73.7092
r429 491 500 57.7833
r430 488 491 12.5926
r431 487 491 12.5926
r432 482 522 60.3759
r433 481 500 4.81481
r434 481 498 16.1574
r435 479 502 4.81481
r436 454 479 11.0741
r437 452 454 18.3333
r438 452 772 8.95062
r439 452 481 11.0741
r440 384 404 1.85185
r441 382 384 36.284
r442 380 479 16.1574
r443 374 404 73.7092
r444 373 382 57.7833
r445 370 373 12.5926
r446 369 373 12.5926
r447 364 404 60.3759
r448 363 382 4.81481
r449 363 380 16.1574
r450 361 384 4.81481
r451 336 361 11.0741
r452 334 336 18.3333
r453 334 454 8.95062
r454 334 363 11.0741
r455 183 203 1.85185
r456 181 183 36.284
r457 179 361 16.1574
r458 173 203 73.7092
r459 172 181 57.7833
r460 169 172 12.5926
r461 168 172 12.5926
r462 163 203 60.3759
r463 162 181 4.81481
r464 162 179 16.1574
r465 160 183 4.81481
r466 135 160 11.0741
r467 133 135 18.3333
r468 133 336 8.95062
r469 133 162 11.0741
r470 65 85 1.85185
r471 63 65 36.284
r472 61 160 16.1574
r473 55 85 73.7092
r474 54 63 57.7833
r475 51 54 12.5926
r476 50 54 12.5926
r477 45 85 60.3759
r478 44 63 4.81481
r479 44 61 16.1574
r480 42 65 4.81481
r481 42 60 16.1574
r482 17 3815 4.07407
r483 17 42 11.0741
r484 15 17 18.3333
r485 15 135 8.95062
r486 15 44 11.0741
.ends

.subckt PM_SRAM_16B_2%VDD 24 29 30 34 39 47 48 100 105 106 110 115 123 124 200
+ 205 206 210 215 223 224 276 281 282 286 291 299 300 486 491 492 496 501 509
+ 510 562 567 568 572 577 585 586 662 667 668 672 677 685 686 738 743 744 748
+ 753 761 762 948 953 954 958 963 971 972 1024 1029 1030 1034 1039 1047 1048
+ 1124 1129 1130 1134 1139 1147 1148 1200 1205 1206 1210 1215 1223 1224 1410
+ 1415 1416 1420 1425 1433 1434 1486 1491 1492 1496 1501 1509 1510 1586 1591
+ 1592 1596 1601 1609 1610 1662 1667 1668 1672 1677 1685 1686 2346
c96 2346 0 0.0999378f
r97 1686 1687 8.97531
r98 1685 1686 15.642
r99 1680 1687 3.43984
r100 1680 1685 3.37811
r101 1672 1685 55.4682
r102 1671 1680 30.6692
r103 1668 1671 25.1852
r104 1667 1671 25.1852
r105 1662 1687 57.9166
r106 1647 1677 33.4827
r107 1647 1686 8.64198
r108 1610 1611 8.97531
r109 1609 1610 15.642
r110 1604 1611 3.43984
r111 1604 1609 3.37811
r112 1596 1609 55.4682
r113 1595 1604 30.6692
r114 1592 1595 25.1852
r115 1591 1595 25.1852
r116 1586 1611 57.9166
r117 1571 1601 33.4827
r118 1571 1610 8.64198
r119 1570 1647 36.2593
r120 1570 1571 8.97531
r121 1510 1511 8.97531
r122 1509 1510 15.642
r123 1504 1511 3.43984
r124 1504 1509 3.37811
r125 1496 1509 55.4682
r126 1495 1504 30.6692
r127 1492 1495 25.1852
r128 1491 1495 25.1852
r129 1486 1511 57.9166
r130 1471 1501 33.4827
r131 1471 1510 8.64198
r132 1470 1570 27.284
r133 1470 1471 8.97531
r134 1434 1435 8.97531
r135 1433 1434 15.642
r136 1428 1435 3.43984
r137 1428 1433 3.37811
r138 1420 1433 55.4682
r139 1419 1428 30.6692
r140 1416 1419 25.1852
r141 1415 1419 25.1852
r142 1410 1435 57.9166
r143 1395 1425 33.4827
r144 1395 1434 8.64198
r145 1394 1470 27.284
r146 1394 1395 8.97531
r147 1224 1225 8.97531
r148 1223 1224 15.642
r149 1218 1225 3.43984
r150 1218 1223 3.37811
r151 1210 1223 55.4682
r152 1209 1218 30.6692
r153 1206 1209 25.1852
r154 1205 1209 25.1852
r155 1200 1225 57.9166
r156 1185 1215 33.4827
r157 1185 1224 8.64198
r158 1184 1394 27.284
r159 1184 1185 8.97531
r160 1148 1149 8.97531
r161 1147 1148 15.642
r162 1142 1149 3.43984
r163 1142 1147 3.37811
r164 1134 1147 55.4682
r165 1133 1142 30.6692
r166 1130 1133 25.1852
r167 1129 1133 25.1852
r168 1124 1149 57.9166
r169 1109 1139 33.4827
r170 1109 1148 8.64198
r171 1108 1184 27.284
r172 1108 1109 8.97531
r173 1048 1049 8.97531
r174 1047 1048 15.642
r175 1042 1049 3.43984
r176 1042 1047 3.37811
r177 1034 1047 55.4682
r178 1033 1042 30.6692
r179 1030 1033 25.1852
r180 1029 1033 25.1852
r181 1024 1049 57.9166
r182 1009 1039 33.4827
r183 1009 1048 8.64198
r184 1008 1108 27.284
r185 1008 1009 8.97531
r186 972 973 8.97531
r187 971 972 15.642
r188 966 973 3.43984
r189 966 971 3.37811
r190 958 971 55.4682
r191 957 966 30.6692
r192 954 957 25.1852
r193 953 957 25.1852
r194 948 973 57.9166
r195 933 963 33.4827
r196 933 972 8.64198
r197 932 1008 27.284
r198 932 933 8.97531
r199 762 763 8.97531
r200 761 762 15.642
r201 756 763 3.43984
r202 756 761 3.37811
r203 748 761 55.4682
r204 747 756 30.6692
r205 744 747 25.1852
r206 743 747 25.1852
r207 738 763 57.9166
r208 723 753 33.4827
r209 723 762 8.64198
r210 722 932 27.284
r211 722 723 8.97531
r212 686 687 8.97531
r213 685 686 15.642
r214 680 687 3.43984
r215 680 685 3.37811
r216 672 685 55.4682
r217 671 680 30.6692
r218 668 671 25.1852
r219 667 671 25.1852
r220 662 687 57.9166
r221 647 677 33.4827
r222 647 686 8.64198
r223 646 722 27.284
r224 646 647 8.97531
r225 586 587 8.97531
r226 585 586 15.642
r227 580 587 3.43984
r228 580 585 3.37811
r229 572 585 55.4682
r230 571 580 30.6692
r231 568 571 25.1852
r232 567 571 25.1852
r233 562 587 57.9166
r234 547 577 33.4827
r235 547 586 8.64198
r236 546 646 27.284
r237 546 547 8.97531
r238 510 511 8.97531
r239 509 510 15.642
r240 504 511 3.43984
r241 504 509 3.37811
r242 496 509 55.4682
r243 495 504 30.6692
r244 492 495 25.1852
r245 491 495 25.1852
r246 486 511 57.9166
r247 471 501 33.4827
r248 471 510 8.64198
r249 470 546 27.284
r250 470 471 8.97531
r251 300 301 8.97531
r252 299 300 15.642
r253 294 301 3.43984
r254 294 299 3.37811
r255 286 299 55.4682
r256 285 294 30.6692
r257 282 285 25.1852
r258 281 285 25.1852
r259 276 301 57.9166
r260 261 291 33.4827
r261 261 300 8.64198
r262 260 470 27.284
r263 260 261 8.97531
r264 224 225 8.97531
r265 223 224 15.642
r266 218 225 3.43984
r267 218 223 3.37811
r268 210 223 55.4682
r269 209 218 30.6692
r270 206 209 25.1852
r271 205 209 25.1852
r272 200 225 57.9166
r273 185 215 33.4827
r274 185 224 8.64198
r275 184 260 27.284
r276 184 185 8.97531
r277 124 125 8.97531
r278 123 124 15.642
r279 118 125 3.43984
r280 118 123 3.37811
r281 110 123 55.4682
r282 109 118 30.6692
r283 106 109 25.1852
r284 105 109 25.1852
r285 100 125 57.9166
r286 85 115 33.4827
r287 85 124 8.64198
r288 84 184 27.284
r289 84 85 8.97531
r290 48 49 8.97531
r291 47 48 15.642
r292 42 49 3.43984
r293 42 47 3.37811
r294 34 47 55.4682
r295 33 42 30.6692
r296 30 33 25.1852
r297 29 33 25.1852
r298 24 49 57.9166
r299 9 39 33.4827
r300 9 48 8.64198
r301 8 2346 13.2716
r302 8 84 27.284
r303 8 9 8.97531
.ends

.subckt PM_SRAM_16B_2%WL0 1 3 37 39 117 119 153 155 289 291 325 327 405 407 441
+ 443 577 579 613 615 693 695 729 731 865 867 901 903 981 983 1017 1019 1504
c64 1023 0 0.0126204f
c65 1017 0 0.0150393f
c66 987 0 0.0123805f
c67 907 0 0.0123805f
c68 871 0 0.0123805f
c69 735 0 0.0123805f
c70 699 0 0.0123805f
c71 619 0 0.0123805f
c72 583 0 0.086613f
c73 445 0 0.0122677f
c74 409 0 0.0122677f
c75 329 0 0.0122677f
c76 293 0 0.0122677f
c77 157 0 0.0122677f
c78 121 0 0.0122677f
r79 1019 1023 232.948
r80 1017 1023 261.849
r81 985 987 25.0617
r82 985 1023 2.22222
r83 983 987 232.948
r84 981 985 236.787
r85 905 907 25.0617
r86 905 987 2.22222
r87 903 907 232.948
r88 901 905 236.787
r89 869 871 25.0617
r90 869 907 2.22222
r91 867 871 232.948
r92 865 869 236.787
r93 733 735 25.0617
r94 733 871 2.22222
r95 731 735 232.948
r96 729 733 236.787
r97 697 699 25.0617
r98 697 735 2.22222
r99 695 699 232.948
r100 693 697 236.787
r101 617 619 25.0617
r102 617 699 2.22222
r103 615 619 232.948
r104 613 617 236.787
r105 581 583 25.0617
r106 581 619 2.22222
r107 579 583 232.948
r108 577 581 236.787
r109 445 447 25.0617
r110 445 583 2.22222
r111 443 447 232.948
r112 441 445 236.787
r113 409 411 25.0617
r114 409 447 2.22222
r115 407 411 232.948
r116 405 409 236.787
r117 329 331 25.0617
r118 329 411 2.22222
r119 327 331 232.948
r120 325 329 236.787
r121 293 295 25.0617
r122 293 331 2.22222
r123 291 295 232.948
r124 289 293 236.787
r125 157 159 25.0617
r126 157 295 2.22222
r127 155 159 232.948
r128 153 157 236.787
r129 121 123 25.0617
r130 121 159 2.22222
r131 119 123 232.948
r132 117 121 236.787
r133 41 43 25.0617
r134 41 123 2.22222
r135 39 43 232.948
r136 37 41 236.787
r137 7 1504 0.740741
r138 5 7 25.0617
r139 5 43 2.22222
r140 3 7 232.948
r141 1 5 236.787
.ends

.subckt PM_SRAM_16B_2%WL1 1 3 37 39 117 119 153 155 289 291 325 327 405 407 441
+ 443 577 579 613 615 693 695 729 731 865 867 901 903 981 983 1017 1019 1504
c48 1023 0 0.0126086f
c49 1019 0 0.0149643f
c50 987 0 0.0123754f
c51 907 0 0.0123754f
c52 871 0 0.0123754f
c53 735 0 0.0123754f
c54 699 0 0.0123754f
c55 619 0 0.0123754f
c56 583 0 0.0768495f
c57 445 0 0.01226f
c58 409 0 0.01226f
c59 329 0 0.01226f
c60 293 0 0.01226f
c61 157 0 0.01226f
c62 121 0 0.01226f
c63 41 0 0.01226f
r64 1019 1023 261.849
r65 1017 1023 232.948
r66 985 987 25.0617
r67 985 1023 2.22222
r68 983 985 236.787
r69 981 987 232.948
r70 905 907 25.0617
r71 905 987 2.22222
r72 903 905 236.787
r73 901 907 232.948
r74 869 871 25.0617
r75 869 907 2.22222
r76 867 869 236.787
r77 865 871 232.948
r78 733 735 25.0617
r79 733 871 2.22222
r80 731 733 236.787
r81 729 735 232.948
r82 697 699 25.0617
r83 697 735 2.22222
r84 695 697 236.787
r85 693 699 232.948
r86 617 619 25.0617
r87 617 699 2.22222
r88 615 617 236.787
r89 613 619 232.948
r90 581 583 25.0617
r91 581 619 2.22222
r92 579 581 236.787
r93 577 583 232.948
r94 445 447 25.0617
r95 445 583 2.22222
r96 443 445 236.787
r97 441 447 232.948
r98 409 411 25.0617
r99 409 447 2.22222
r100 407 409 236.787
r101 405 411 232.948
r102 329 331 25.0617
r103 329 411 2.22222
r104 327 329 236.787
r105 325 331 232.948
r106 293 295 25.0617
r107 293 331 2.22222
r108 291 293 236.787
r109 289 295 232.948
r110 157 159 25.0617
r111 157 295 2.22222
r112 155 157 236.787
r113 153 159 232.948
r114 121 123 25.0617
r115 121 159 2.22222
r116 119 121 236.787
r117 117 123 232.948
r118 41 43 25.0617
r119 41 123 2.22222
r120 39 41 236.787
r121 37 43 232.948
r122 7 1504 0.802469
r123 5 7 25.0617
r124 5 43 2.22222
r125 3 5 236.787
r126 1 7 232.948
.ends

