* File: netlist.sp.pex
* Created: Sat Jun 14 09:12:51 2025
* Program "Calibre xRC"
* Version "v2019.2_26.18"
* Nominal Temperature: 25C
* Circuit Temperature: 27C
* 
.subckt PM_SRAMNSA_1%XI1/XI0/NET3 1 6 7 10
c10 1 0 0.00471516f
r11 7 10 25.1852
r12 6 10 25.1852
r13 1 10 197.179
.ends

.subckt PM_SRAMNSA_1%XI1/XI4/NET3 1 6 7 10
c10 1 0 0.00484345f
r11 7 10 25.1852
r12 6 10 25.1852
r13 1 10 197.179
.ends

.subckt PM_SRAMNSA_1%XI1/XI8/NET3 1 6 7 10
c10 1 0 0.00484345f
r11 7 10 25.1852
r12 6 10 25.1852
r13 1 10 197.179
.ends

.subckt PM_SRAMNSA_1%XI1/XI12/NET3 1 6 7 10
c10 1 0 0.0048709f
r11 7 10 25.1852
r12 6 10 25.1852
r13 1 10 197.179
.ends

.subckt PM_SRAMNSA_1%XI1/XI1/NET3 1 6 7 10
c10 1 0 0.00484345f
r11 7 10 25.1852
r12 6 10 25.1852
r13 1 10 197.179
.ends

.subckt PM_SRAMNSA_1%XI1/XI5/NET3 1 6 7 10
c10 1 0 0.00484345f
r11 7 10 25.1852
r12 6 10 25.1852
r13 1 10 197.179
.ends

.subckt PM_SRAMNSA_1%XI1/XI9/NET3 1 6 7 10
c10 1 0 0.0048709f
r11 7 10 25.1852
r12 6 10 25.1852
r13 1 10 197.179
.ends

.subckt PM_SRAMNSA_1%XI1/XI13/NET3 1 6 7 10
c10 1 0 0.0048709f
r11 7 10 25.1852
r12 6 10 25.1852
r13 1 10 197.179
.ends

.subckt PM_SRAMNSA_1%XI1/XI2/NET3 1 6 7 10
c10 1 0 0.0048709f
r11 7 10 25.1852
r12 6 10 25.1852
r13 1 10 197.179
.ends

.subckt PM_SRAMNSA_1%XI1/XI6/NET3 1 6 7 10
c10 1 0 0.00484345f
r11 7 10 25.1852
r12 6 10 25.1852
r13 1 10 197.179
.ends

.subckt PM_SRAMNSA_1%XI1/XI10/NET3 1 6 7 10
c10 1 0 0.00484345f
r11 7 10 25.1852
r12 6 10 25.1852
r13 1 10 197.179
.ends

.subckt PM_SRAMNSA_1%XI1/XI14/NET3 1 6 7 10
c10 1 0 0.00484345f
r11 7 10 25.1852
r12 6 10 25.1852
r13 1 10 197.179
.ends

.subckt PM_SRAMNSA_1%XI1/XI3/NET3 1 6 7 10
c10 1 0 0.0048709f
r11 7 10 25.1852
r12 6 10 25.1852
r13 1 10 197.179
.ends

.subckt PM_SRAMNSA_1%XI1/XI7/NET3 1 6 7 10
c10 1 0 0.0048709f
r11 7 10 25.1852
r12 6 10 25.1852
r13 1 10 197.179
.ends

.subckt PM_SRAMNSA_1%XI1/XI11/NET3 1 6 7 10
c10 1 0 0.00484345f
r11 7 10 25.1852
r12 6 10 25.1852
r13 1 10 197.179
.ends

.subckt PM_SRAMNSA_1%XI1/XI15/NET3 1 6 7 10
c10 1 0 0.0047361f
r11 7 10 25.1852
r12 6 10 25.1852
r13 1 10 197.179
.ends

.subckt PM_SRAMNSA_1%XI0/XI0/XI0/NET33 2 5 9 10 14
c0 9 0 0.00354562f
r1 14 17 22.2222
r2 13 17 81.994
r3 10 13 12.5926
r4 9 13 12.5926
r5 5 17 436.533
r6 2 5 362.812
.ends

.subckt PM_SRAMNSA_1%XI0/XI0/XI0/NET34 5 7 9 10 14
c0 9 0 0.00354253f
r1 14 20 22.2222
r2 13 20 81.5625
r3 10 13 12.5926
r4 9 13 12.5926
r5 5 20 439.853
r6 5 7 362.812
.ends

.subckt PM_SRAMNSA_1%XI0/XI0/XI0/NET36 5 7 9 10 14
c0 9 0 0.00354253f
r1 14 17 22.2222
r2 13 17 81.5625
r3 10 13 12.5926
r4 9 13 12.5926
r5 5 7 362.812
r6 5 17 439.853
.ends

.subckt PM_SRAMNSA_1%XI0/XI0/XI0/NET35 2 5 9 10 14
c0 9 0 0.00354562f
r1 14 17 22.2222
r2 13 17 81.994
r3 10 13 12.5926
r4 9 13 12.5926
r5 5 17 436.533
r6 2 5 362.812
.ends

.subckt PM_SRAMNSA_1%XI0/XI0/XI1/NET33 2 5 9 10 14
c0 9 0 0.00354562f
r1 14 17 22.2222
r2 13 17 81.994
r3 10 13 12.5926
r4 9 13 12.5926
r5 5 17 436.533
r6 2 5 362.812
.ends

.subckt PM_SRAMNSA_1%XI0/XI0/XI1/NET34 5 7 9 10 14
c0 9 0 0.00354253f
r1 14 20 22.2222
r2 13 20 81.5625
r3 10 13 12.5926
r4 9 13 12.5926
r5 5 20 439.853
r6 5 7 362.812
.ends

.subckt PM_SRAMNSA_1%XI0/XI0/XI1/NET36 5 7 9 10 14
c0 9 0 0.00354253f
r1 14 17 22.2222
r2 13 17 81.5625
r3 10 13 12.5926
r4 9 13 12.5926
r5 5 7 362.812
r6 5 17 439.853
.ends

.subckt PM_SRAMNSA_1%XI0/XI0/XI1/NET35 2 5 9 10 14
c0 9 0 0.00354562f
r1 14 17 22.2222
r2 13 17 81.994
r3 10 13 12.5926
r4 9 13 12.5926
r5 5 17 436.533
r6 2 5 362.812
.ends

.subckt PM_SRAMNSA_1%XI0/XI0/XI2/NET33 2 5 9 10 14
c0 9 0 0.00354562f
r1 14 17 22.2222
r2 13 17 81.994
r3 10 13 12.5926
r4 9 13 12.5926
r5 5 17 436.533
r6 2 5 362.812
.ends

.subckt PM_SRAMNSA_1%XI0/XI0/XI2/NET34 5 7 9 10 14
c0 9 0 0.00354253f
r1 14 20 22.2222
r2 13 20 81.5625
r3 10 13 12.5926
r4 9 13 12.5926
r5 5 20 439.853
r6 5 7 362.812
.ends

.subckt PM_SRAMNSA_1%XI0/XI0/XI2/NET36 5 7 9 10 14
c0 9 0 0.00354253f
r1 14 17 22.2222
r2 13 17 81.5625
r3 10 13 12.5926
r4 9 13 12.5926
r5 5 7 362.812
r6 5 17 439.853
.ends

.subckt PM_SRAMNSA_1%XI0/XI0/XI2/NET35 2 5 9 10 14
c0 9 0 0.00354562f
r1 14 17 22.2222
r2 13 17 81.994
r3 10 13 12.5926
r4 9 13 12.5926
r5 5 17 436.533
r6 2 5 362.812
.ends

.subckt PM_SRAMNSA_1%XI0/XI0/XI3/NET33 2 5 9 10 14
c0 9 0 0.00354562f
r1 14 17 22.2222
r2 13 17 81.994
r3 10 13 12.5926
r4 9 13 12.5926
r5 5 17 436.533
r6 2 5 362.812
.ends

.subckt PM_SRAMNSA_1%XI0/XI0/XI3/NET34 5 7 9 10 14
c0 9 0 0.00354253f
r1 14 20 22.2222
r2 13 20 81.5625
r3 10 13 12.5926
r4 9 13 12.5926
r5 5 20 439.853
r6 5 7 362.812
.ends

.subckt PM_SRAMNSA_1%XI0/XI0/XI3/NET36 5 7 9 10 14
c0 9 0 0.00354253f
r1 14 17 22.2222
r2 13 17 81.5625
r3 10 13 12.5926
r4 9 13 12.5926
r5 5 7 362.812
r6 5 17 439.853
.ends

.subckt PM_SRAMNSA_1%XI0/XI0/XI3/NET35 2 5 9 10 14
c0 9 0 0.00354562f
r1 14 17 22.2222
r2 13 17 81.994
r3 10 13 12.5926
r4 9 13 12.5926
r5 5 17 436.533
r6 2 5 362.812
.ends

.subckt PM_SRAMNSA_1%XI0/XI0/XI4/NET33 2 5 9 10 14
c0 9 0 0.00354562f
r1 14 17 22.2222
r2 13 17 81.994
r3 10 13 12.5926
r4 9 13 12.5926
r5 5 17 436.533
r6 2 5 362.812
.ends

.subckt PM_SRAMNSA_1%XI0/XI0/XI4/NET34 5 7 9 10 14
c0 9 0 0.00354253f
r1 14 20 22.2222
r2 13 20 81.5625
r3 10 13 12.5926
r4 9 13 12.5926
r5 5 20 439.853
r6 5 7 362.812
.ends

.subckt PM_SRAMNSA_1%XI0/XI0/XI4/NET36 5 7 9 10 14
c0 9 0 0.00354253f
r1 14 17 22.2222
r2 13 17 81.5625
r3 10 13 12.5926
r4 9 13 12.5926
r5 5 7 362.812
r6 5 17 439.853
.ends

.subckt PM_SRAMNSA_1%XI0/XI0/XI4/NET35 2 5 9 10 14
c0 9 0 0.00354562f
r1 14 17 22.2222
r2 13 17 81.994
r3 10 13 12.5926
r4 9 13 12.5926
r5 5 17 436.533
r6 2 5 362.812
.ends

.subckt PM_SRAMNSA_1%XI0/XI0/XI5/NET33 2 5 9 10 14
c0 9 0 0.00354562f
r1 14 17 22.2222
r2 13 17 81.994
r3 10 13 12.5926
r4 9 13 12.5926
r5 5 17 436.533
r6 2 5 362.812
.ends

.subckt PM_SRAMNSA_1%XI0/XI0/XI5/NET34 5 7 9 10 14
c0 9 0 0.00354253f
r1 14 20 22.2222
r2 13 20 81.5625
r3 10 13 12.5926
r4 9 13 12.5926
r5 5 20 439.853
r6 5 7 362.812
.ends

.subckt PM_SRAMNSA_1%XI0/XI0/XI5/NET36 5 7 9 10 14
c0 9 0 0.00354253f
r1 14 17 22.2222
r2 13 17 81.5625
r3 10 13 12.5926
r4 9 13 12.5926
r5 5 7 362.812
r6 5 17 439.853
.ends

.subckt PM_SRAMNSA_1%XI0/XI0/XI5/NET35 2 5 9 10 14
c0 9 0 0.00354562f
r1 14 17 22.2222
r2 13 17 81.994
r3 10 13 12.5926
r4 9 13 12.5926
r5 5 17 436.533
r6 2 5 362.812
.ends

.subckt PM_SRAMNSA_1%XI0/XI0/XI6/NET33 2 5 9 10 14
c0 9 0 0.00354562f
r1 14 17 22.2222
r2 13 17 81.994
r3 10 13 12.5926
r4 9 13 12.5926
r5 5 17 436.533
r6 2 5 362.812
.ends

.subckt PM_SRAMNSA_1%XI0/XI0/XI6/NET34 5 7 9 10 14
c0 9 0 0.00354253f
r1 14 20 22.2222
r2 13 20 81.5625
r3 10 13 12.5926
r4 9 13 12.5926
r5 5 20 439.853
r6 5 7 362.812
.ends

.subckt PM_SRAMNSA_1%XI0/XI0/XI6/NET36 5 7 9 10 14
c0 9 0 0.00354253f
r1 14 17 22.2222
r2 13 17 81.5625
r3 10 13 12.5926
r4 9 13 12.5926
r5 5 7 362.812
r6 5 17 439.853
.ends

.subckt PM_SRAMNSA_1%XI0/XI0/XI6/NET35 2 5 9 10 14
c0 9 0 0.00354562f
r1 14 17 22.2222
r2 13 17 81.994
r3 10 13 12.5926
r4 9 13 12.5926
r5 5 17 436.533
r6 2 5 362.812
.ends

.subckt PM_SRAMNSA_1%XI0/XI0/XI7/NET33 2 5 9 10 14
c0 9 0 0.00354562f
r1 14 17 22.2222
r2 13 17 81.994
r3 10 13 12.5926
r4 9 13 12.5926
r5 5 17 436.533
r6 2 5 362.812
.ends

.subckt PM_SRAMNSA_1%XI0/XI0/XI7/NET34 5 7 9 10 14
c0 9 0 0.00354253f
r1 14 20 22.2222
r2 13 20 81.5625
r3 10 13 12.5926
r4 9 13 12.5926
r5 5 20 439.853
r6 5 7 362.812
.ends

.subckt PM_SRAMNSA_1%XI0/XI0/XI7/NET36 5 7 9 10 14
c0 9 0 0.00354253f
r1 14 17 22.2222
r2 13 17 81.5625
r3 10 13 12.5926
r4 9 13 12.5926
r5 5 7 362.812
r6 5 17 439.853
.ends

.subckt PM_SRAMNSA_1%XI0/XI0/XI7/NET35 2 5 9 10 14
c0 9 0 0.00354562f
r1 14 17 22.2222
r2 13 17 81.994
r3 10 13 12.5926
r4 9 13 12.5926
r5 5 17 436.533
r6 2 5 362.812
.ends

.subckt PM_SRAMNSA_1%XI0/XI0/XI8/NET33 2 5 9 10 14
c0 9 0 0.00354562f
r1 14 17 22.2222
r2 13 17 81.994
r3 10 13 12.5926
r4 9 13 12.5926
r5 5 17 436.533
r6 2 5 362.812
.ends

.subckt PM_SRAMNSA_1%XI0/XI0/XI8/NET34 5 7 9 10 14
c0 9 0 0.00354253f
r1 14 20 22.2222
r2 13 20 81.5625
r3 10 13 12.5926
r4 9 13 12.5926
r5 5 20 439.853
r6 5 7 362.812
.ends

.subckt PM_SRAMNSA_1%XI0/XI0/XI8/NET36 5 7 9 10 14
c0 9 0 0.00354253f
r1 14 17 22.2222
r2 13 17 81.5625
r3 10 13 12.5926
r4 9 13 12.5926
r5 5 7 362.812
r6 5 17 439.853
.ends

.subckt PM_SRAMNSA_1%XI0/XI0/XI8/NET35 2 5 9 10 14
c0 9 0 0.00354562f
r1 14 17 22.2222
r2 13 17 81.994
r3 10 13 12.5926
r4 9 13 12.5926
r5 5 17 436.533
r6 2 5 362.812
.ends

.subckt PM_SRAMNSA_1%XI0/XI0/XI9/NET33 2 5 9 10 14
c0 9 0 0.00354562f
r1 14 17 22.2222
r2 13 17 81.994
r3 10 13 12.5926
r4 9 13 12.5926
r5 5 17 436.533
r6 2 5 362.812
.ends

.subckt PM_SRAMNSA_1%XI0/XI0/XI9/NET34 5 7 9 10 14
c0 9 0 0.00354253f
r1 14 20 22.2222
r2 13 20 81.5625
r3 10 13 12.5926
r4 9 13 12.5926
r5 5 20 439.853
r6 5 7 362.812
.ends

.subckt PM_SRAMNSA_1%XI0/XI0/XI9/NET36 5 7 9 10 14
c0 9 0 0.00354253f
r1 14 17 22.2222
r2 13 17 81.5625
r3 10 13 12.5926
r4 9 13 12.5926
r5 5 7 362.812
r6 5 17 439.853
.ends

.subckt PM_SRAMNSA_1%XI0/XI0/XI9/NET35 2 5 9 10 14
c0 9 0 0.00354562f
r1 14 17 22.2222
r2 13 17 81.994
r3 10 13 12.5926
r4 9 13 12.5926
r5 5 17 436.533
r6 2 5 362.812
.ends

.subckt PM_SRAMNSA_1%XI0/XI0/XI10/NET33 2 5 9 10 14
c0 9 0 0.00354562f
r1 14 17 22.2222
r2 13 17 81.994
r3 10 13 12.5926
r4 9 13 12.5926
r5 5 17 436.533
r6 2 5 362.812
.ends

.subckt PM_SRAMNSA_1%XI0/XI0/XI10/NET34 5 7 9 10 14
c0 9 0 0.00354253f
r1 14 20 22.2222
r2 13 20 81.5625
r3 10 13 12.5926
r4 9 13 12.5926
r5 5 20 439.853
r6 5 7 362.812
.ends

.subckt PM_SRAMNSA_1%XI0/XI0/XI10/NET36 5 7 9 10 14
c0 9 0 0.00354253f
r1 14 17 22.2222
r2 13 17 81.5625
r3 10 13 12.5926
r4 9 13 12.5926
r5 5 7 362.812
r6 5 17 439.853
.ends

.subckt PM_SRAMNSA_1%XI0/XI0/XI10/NET35 2 5 9 10 14
c0 9 0 0.00354562f
r1 14 17 22.2222
r2 13 17 81.994
r3 10 13 12.5926
r4 9 13 12.5926
r5 5 17 436.533
r6 2 5 362.812
.ends

.subckt PM_SRAMNSA_1%XI0/XI0/XI11/NET33 2 5 9 10 14
c0 9 0 0.00354562f
r1 14 17 22.2222
r2 13 17 81.994
r3 10 13 12.5926
r4 9 13 12.5926
r5 5 17 436.533
r6 2 5 362.812
.ends

.subckt PM_SRAMNSA_1%XI0/XI0/XI11/NET34 5 7 9 10 14
c0 9 0 0.00354253f
r1 14 20 22.2222
r2 13 20 81.5625
r3 10 13 12.5926
r4 9 13 12.5926
r5 5 20 439.853
r6 5 7 362.812
.ends

.subckt PM_SRAMNSA_1%XI0/XI0/XI11/NET36 5 7 9 10 14
c0 9 0 0.00354253f
r1 14 17 22.2222
r2 13 17 81.5625
r3 10 13 12.5926
r4 9 13 12.5926
r5 5 7 362.812
r6 5 17 439.853
.ends

.subckt PM_SRAMNSA_1%XI0/XI0/XI11/NET35 2 5 9 10 14
c0 9 0 0.00354562f
r1 14 17 22.2222
r2 13 17 81.994
r3 10 13 12.5926
r4 9 13 12.5926
r5 5 17 436.533
r6 2 5 362.812
.ends

.subckt PM_SRAMNSA_1%XI0/XI0/XI12/NET33 2 5 9 10 14
c0 9 0 0.00354562f
r1 14 17 22.2222
r2 13 17 81.994
r3 10 13 12.5926
r4 9 13 12.5926
r5 5 17 436.533
r6 2 5 362.812
.ends

.subckt PM_SRAMNSA_1%XI0/XI0/XI12/NET34 5 7 9 10 14
c0 9 0 0.00354253f
r1 14 20 22.2222
r2 13 20 81.5625
r3 10 13 12.5926
r4 9 13 12.5926
r5 5 20 439.853
r6 5 7 362.812
.ends

.subckt PM_SRAMNSA_1%XI0/XI0/XI12/NET36 5 7 9 10 14
c0 9 0 0.00354253f
r1 14 17 22.2222
r2 13 17 81.5625
r3 10 13 12.5926
r4 9 13 12.5926
r5 5 7 362.812
r6 5 17 439.853
.ends

.subckt PM_SRAMNSA_1%XI0/XI0/XI12/NET35 2 5 9 10 14
c0 9 0 0.00354562f
r1 14 17 22.2222
r2 13 17 81.994
r3 10 13 12.5926
r4 9 13 12.5926
r5 5 17 436.533
r6 2 5 362.812
.ends

.subckt PM_SRAMNSA_1%XI0/XI0/XI13/NET33 2 5 9 10 14
c0 9 0 0.00354562f
r1 14 17 22.2222
r2 13 17 81.994
r3 10 13 12.5926
r4 9 13 12.5926
r5 5 17 436.533
r6 2 5 362.812
.ends

.subckt PM_SRAMNSA_1%XI0/XI0/XI13/NET34 5 7 9 10 14
c0 9 0 0.00354253f
r1 14 20 22.2222
r2 13 20 81.5625
r3 10 13 12.5926
r4 9 13 12.5926
r5 5 20 439.853
r6 5 7 362.812
.ends

.subckt PM_SRAMNSA_1%XI0/XI0/XI13/NET36 5 7 9 10 14
c0 9 0 0.00354253f
r1 14 17 22.2222
r2 13 17 81.5625
r3 10 13 12.5926
r4 9 13 12.5926
r5 5 7 362.812
r6 5 17 439.853
.ends

.subckt PM_SRAMNSA_1%XI0/XI0/XI13/NET35 2 5 9 10 14
c0 9 0 0.00354562f
r1 14 17 22.2222
r2 13 17 81.994
r3 10 13 12.5926
r4 9 13 12.5926
r5 5 17 436.533
r6 2 5 362.812
.ends

.subckt PM_SRAMNSA_1%XI0/XI0/XI14/NET33 2 5 9 10 14
c0 9 0 0.00354562f
r1 14 17 22.2222
r2 13 17 81.994
r3 10 13 12.5926
r4 9 13 12.5926
r5 5 17 436.533
r6 2 5 362.812
.ends

.subckt PM_SRAMNSA_1%XI0/XI0/XI14/NET34 5 7 9 10 14
c0 9 0 0.00354253f
r1 14 20 22.2222
r2 13 20 81.5625
r3 10 13 12.5926
r4 9 13 12.5926
r5 5 20 439.853
r6 5 7 362.812
.ends

.subckt PM_SRAMNSA_1%XI0/XI0/XI14/NET36 5 7 9 10 14
c0 9 0 0.00354253f
r1 14 17 22.2222
r2 13 17 81.5625
r3 10 13 12.5926
r4 9 13 12.5926
r5 5 7 362.812
r6 5 17 439.853
.ends

.subckt PM_SRAMNSA_1%XI0/XI0/XI14/NET35 2 5 9 10 14
c0 9 0 0.00354562f
r1 14 17 22.2222
r2 13 17 81.994
r3 10 13 12.5926
r4 9 13 12.5926
r5 5 17 436.533
r6 2 5 362.812
.ends

.subckt PM_SRAMNSA_1%XI0/XI0/XI15/NET33 2 5 9 10 14
c0 9 0 0.00354562f
r1 14 17 22.2222
r2 13 17 81.994
r3 10 13 12.5926
r4 9 13 12.5926
r5 5 17 436.533
r6 2 5 362.812
.ends

.subckt PM_SRAMNSA_1%XI0/XI0/XI15/NET34 5 7 9 10 14
c0 9 0 0.00354253f
r1 14 20 22.2222
r2 13 20 81.5625
r3 10 13 12.5926
r4 9 13 12.5926
r5 5 20 439.853
r6 5 7 362.812
.ends

.subckt PM_SRAMNSA_1%XI0/XI0/XI15/NET36 5 7 9 10 14
c0 9 0 0.00354253f
r1 14 17 22.2222
r2 13 17 81.5625
r3 10 13 12.5926
r4 9 13 12.5926
r5 5 7 362.812
r6 5 17 439.853
.ends

.subckt PM_SRAMNSA_1%XI0/XI0/XI15/NET35 2 5 9 10 14
c0 9 0 0.00354562f
r1 14 17 22.2222
r2 13 17 81.994
r3 10 13 12.5926
r4 9 13 12.5926
r5 5 17 436.533
r6 2 5 362.812
.ends

.subckt PM_SRAMNSA_1%XI0/XI1/XI0/NET33 2 5 9 10 14
c0 9 0 0.00354562f
r1 14 17 22.2222
r2 13 17 81.994
r3 10 13 12.5926
r4 9 13 12.5926
r5 5 17 436.533
r6 2 5 362.812
.ends

.subckt PM_SRAMNSA_1%XI0/XI1/XI0/NET34 5 7 9 10 14
c0 9 0 0.00354253f
r1 14 20 22.2222
r2 13 20 81.5625
r3 10 13 12.5926
r4 9 13 12.5926
r5 5 20 439.853
r6 5 7 362.812
.ends

.subckt PM_SRAMNSA_1%XI0/XI1/XI0/NET36 5 7 9 10 14
c0 9 0 0.00354253f
r1 14 17 22.2222
r2 13 17 81.5625
r3 10 13 12.5926
r4 9 13 12.5926
r5 5 7 362.812
r6 5 17 439.853
.ends

.subckt PM_SRAMNSA_1%XI0/XI1/XI0/NET35 2 5 9 10 14
c0 9 0 0.00354562f
r1 14 17 22.2222
r2 13 17 81.994
r3 10 13 12.5926
r4 9 13 12.5926
r5 5 17 436.533
r6 2 5 362.812
.ends

.subckt PM_SRAMNSA_1%XI0/XI1/XI1/NET33 2 5 9 10 14
c0 9 0 0.00354562f
r1 14 17 22.2222
r2 13 17 81.994
r3 10 13 12.5926
r4 9 13 12.5926
r5 5 17 436.533
r6 2 5 362.812
.ends

.subckt PM_SRAMNSA_1%XI0/XI1/XI1/NET34 5 7 9 10 14
c0 9 0 0.00354253f
r1 14 20 22.2222
r2 13 20 81.5625
r3 10 13 12.5926
r4 9 13 12.5926
r5 5 20 439.853
r6 5 7 362.812
.ends

.subckt PM_SRAMNSA_1%XI0/XI1/XI1/NET36 5 7 9 10 14
c0 9 0 0.00354253f
r1 14 17 22.2222
r2 13 17 81.5625
r3 10 13 12.5926
r4 9 13 12.5926
r5 5 7 362.812
r6 5 17 439.853
.ends

.subckt PM_SRAMNSA_1%XI0/XI1/XI1/NET35 2 5 9 10 14
c0 9 0 0.00354562f
r1 14 17 22.2222
r2 13 17 81.994
r3 10 13 12.5926
r4 9 13 12.5926
r5 5 17 436.533
r6 2 5 362.812
.ends

.subckt PM_SRAMNSA_1%XI0/XI1/XI2/NET33 2 5 9 10 14
c0 9 0 0.00354562f
r1 14 17 22.2222
r2 13 17 81.994
r3 10 13 12.5926
r4 9 13 12.5926
r5 5 17 436.533
r6 2 5 362.812
.ends

.subckt PM_SRAMNSA_1%XI0/XI1/XI2/NET34 5 7 9 10 14
c0 9 0 0.00354253f
r1 14 20 22.2222
r2 13 20 81.5625
r3 10 13 12.5926
r4 9 13 12.5926
r5 5 20 439.853
r6 5 7 362.812
.ends

.subckt PM_SRAMNSA_1%XI0/XI1/XI2/NET36 5 7 9 10 14
c0 9 0 0.00354253f
r1 14 17 22.2222
r2 13 17 81.5625
r3 10 13 12.5926
r4 9 13 12.5926
r5 5 7 362.812
r6 5 17 439.853
.ends

.subckt PM_SRAMNSA_1%XI0/XI1/XI2/NET35 2 5 9 10 14
c0 9 0 0.00354562f
r1 14 17 22.2222
r2 13 17 81.994
r3 10 13 12.5926
r4 9 13 12.5926
r5 5 17 436.533
r6 2 5 362.812
.ends

.subckt PM_SRAMNSA_1%XI0/XI1/XI3/NET33 2 5 9 10 14
c0 9 0 0.00354562f
r1 14 17 22.2222
r2 13 17 81.994
r3 10 13 12.5926
r4 9 13 12.5926
r5 5 17 436.533
r6 2 5 362.812
.ends

.subckt PM_SRAMNSA_1%XI0/XI1/XI3/NET34 5 7 9 10 14
c0 9 0 0.00354253f
r1 14 20 22.2222
r2 13 20 81.5625
r3 10 13 12.5926
r4 9 13 12.5926
r5 5 20 439.853
r6 5 7 362.812
.ends

.subckt PM_SRAMNSA_1%XI0/XI1/XI3/NET36 5 7 9 10 14
c0 9 0 0.00354253f
r1 14 17 22.2222
r2 13 17 81.5625
r3 10 13 12.5926
r4 9 13 12.5926
r5 5 7 362.812
r6 5 17 439.853
.ends

.subckt PM_SRAMNSA_1%XI0/XI1/XI3/NET35 2 5 9 10 14
c0 9 0 0.00354562f
r1 14 17 22.2222
r2 13 17 81.994
r3 10 13 12.5926
r4 9 13 12.5926
r5 5 17 436.533
r6 2 5 362.812
.ends

.subckt PM_SRAMNSA_1%XI0/XI1/XI4/NET33 2 5 9 10 14
c0 9 0 0.00354562f
r1 14 17 22.2222
r2 13 17 81.994
r3 10 13 12.5926
r4 9 13 12.5926
r5 5 17 436.533
r6 2 5 362.812
.ends

.subckt PM_SRAMNSA_1%XI0/XI1/XI4/NET34 5 7 9 10 14
c0 9 0 0.00354253f
r1 14 20 22.2222
r2 13 20 81.5625
r3 10 13 12.5926
r4 9 13 12.5926
r5 5 20 439.853
r6 5 7 362.812
.ends

.subckt PM_SRAMNSA_1%XI0/XI1/XI4/NET36 5 7 9 10 14
c0 9 0 0.00354253f
r1 14 17 22.2222
r2 13 17 81.5625
r3 10 13 12.5926
r4 9 13 12.5926
r5 5 7 362.812
r6 5 17 439.853
.ends

.subckt PM_SRAMNSA_1%XI0/XI1/XI4/NET35 2 5 9 10 14
c0 9 0 0.00354562f
r1 14 17 22.2222
r2 13 17 81.994
r3 10 13 12.5926
r4 9 13 12.5926
r5 5 17 436.533
r6 2 5 362.812
.ends

.subckt PM_SRAMNSA_1%XI0/XI1/XI5/NET33 2 5 9 10 14
c0 9 0 0.00354562f
r1 14 17 22.2222
r2 13 17 81.994
r3 10 13 12.5926
r4 9 13 12.5926
r5 5 17 436.533
r6 2 5 362.812
.ends

.subckt PM_SRAMNSA_1%XI0/XI1/XI5/NET34 5 7 9 10 14
c0 9 0 0.00354253f
r1 14 20 22.2222
r2 13 20 81.5625
r3 10 13 12.5926
r4 9 13 12.5926
r5 5 20 439.853
r6 5 7 362.812
.ends

.subckt PM_SRAMNSA_1%XI0/XI1/XI5/NET36 5 7 9 10 14
c0 9 0 0.00354253f
r1 14 17 22.2222
r2 13 17 81.5625
r3 10 13 12.5926
r4 9 13 12.5926
r5 5 7 362.812
r6 5 17 439.853
.ends

.subckt PM_SRAMNSA_1%XI0/XI1/XI5/NET35 2 5 9 10 14
c0 9 0 0.00354562f
r1 14 17 22.2222
r2 13 17 81.994
r3 10 13 12.5926
r4 9 13 12.5926
r5 5 17 436.533
r6 2 5 362.812
.ends

.subckt PM_SRAMNSA_1%XI0/XI1/XI6/NET33 2 5 9 10 14
c0 9 0 0.00354562f
r1 14 17 22.2222
r2 13 17 81.994
r3 10 13 12.5926
r4 9 13 12.5926
r5 5 17 436.533
r6 2 5 362.812
.ends

.subckt PM_SRAMNSA_1%XI0/XI1/XI6/NET34 5 7 9 10 14
c0 9 0 0.00354253f
r1 14 20 22.2222
r2 13 20 81.5625
r3 10 13 12.5926
r4 9 13 12.5926
r5 5 20 439.853
r6 5 7 362.812
.ends

.subckt PM_SRAMNSA_1%XI0/XI1/XI6/NET36 5 7 9 10 14
c0 9 0 0.00354253f
r1 14 17 22.2222
r2 13 17 81.5625
r3 10 13 12.5926
r4 9 13 12.5926
r5 5 7 362.812
r6 5 17 439.853
.ends

.subckt PM_SRAMNSA_1%XI0/XI1/XI6/NET35 2 5 9 10 14
c0 9 0 0.00354562f
r1 14 17 22.2222
r2 13 17 81.994
r3 10 13 12.5926
r4 9 13 12.5926
r5 5 17 436.533
r6 2 5 362.812
.ends

.subckt PM_SRAMNSA_1%XI0/XI1/XI7/NET33 2 5 9 10 14
c0 9 0 0.00354562f
r1 14 17 22.2222
r2 13 17 81.994
r3 10 13 12.5926
r4 9 13 12.5926
r5 5 17 436.533
r6 2 5 362.812
.ends

.subckt PM_SRAMNSA_1%XI0/XI1/XI7/NET34 5 7 9 10 14
c0 9 0 0.00354253f
r1 14 20 22.2222
r2 13 20 81.5625
r3 10 13 12.5926
r4 9 13 12.5926
r5 5 20 439.853
r6 5 7 362.812
.ends

.subckt PM_SRAMNSA_1%XI0/XI1/XI7/NET36 5 7 9 10 14
c0 9 0 0.00354253f
r1 14 17 22.2222
r2 13 17 81.5625
r3 10 13 12.5926
r4 9 13 12.5926
r5 5 7 362.812
r6 5 17 439.853
.ends

.subckt PM_SRAMNSA_1%XI0/XI1/XI7/NET35 2 5 9 10 14
c0 9 0 0.00354562f
r1 14 17 22.2222
r2 13 17 81.994
r3 10 13 12.5926
r4 9 13 12.5926
r5 5 17 436.533
r6 2 5 362.812
.ends

.subckt PM_SRAMNSA_1%XI0/XI1/XI8/NET33 2 5 9 10 14
c0 9 0 0.00354562f
r1 14 17 22.2222
r2 13 17 81.994
r3 10 13 12.5926
r4 9 13 12.5926
r5 5 17 436.533
r6 2 5 362.812
.ends

.subckt PM_SRAMNSA_1%XI0/XI1/XI8/NET34 5 7 9 10 14
c0 9 0 0.00354253f
r1 14 20 22.2222
r2 13 20 81.5625
r3 10 13 12.5926
r4 9 13 12.5926
r5 5 20 439.853
r6 5 7 362.812
.ends

.subckt PM_SRAMNSA_1%XI0/XI1/XI8/NET36 5 7 9 10 14
c0 9 0 0.00354253f
r1 14 17 22.2222
r2 13 17 81.5625
r3 10 13 12.5926
r4 9 13 12.5926
r5 5 7 362.812
r6 5 17 439.853
.ends

.subckt PM_SRAMNSA_1%XI0/XI1/XI8/NET35 2 5 9 10 14
c0 9 0 0.00354562f
r1 14 17 22.2222
r2 13 17 81.994
r3 10 13 12.5926
r4 9 13 12.5926
r5 5 17 436.533
r6 2 5 362.812
.ends

.subckt PM_SRAMNSA_1%XI0/XI1/XI9/NET33 2 5 9 10 14
c0 9 0 0.00354562f
r1 14 17 22.2222
r2 13 17 81.994
r3 10 13 12.5926
r4 9 13 12.5926
r5 5 17 436.533
r6 2 5 362.812
.ends

.subckt PM_SRAMNSA_1%XI0/XI1/XI9/NET34 5 7 9 10 14
c0 9 0 0.00354253f
r1 14 20 22.2222
r2 13 20 81.5625
r3 10 13 12.5926
r4 9 13 12.5926
r5 5 20 439.853
r6 5 7 362.812
.ends

.subckt PM_SRAMNSA_1%XI0/XI1/XI9/NET36 5 7 9 10 14
c0 9 0 0.00354253f
r1 14 17 22.2222
r2 13 17 81.5625
r3 10 13 12.5926
r4 9 13 12.5926
r5 5 7 362.812
r6 5 17 439.853
.ends

.subckt PM_SRAMNSA_1%XI0/XI1/XI9/NET35 2 5 9 10 14
c0 9 0 0.00354562f
r1 14 17 22.2222
r2 13 17 81.994
r3 10 13 12.5926
r4 9 13 12.5926
r5 5 17 436.533
r6 2 5 362.812
.ends

.subckt PM_SRAMNSA_1%XI0/XI1/XI10/NET33 2 5 9 10 14
c0 9 0 0.00354562f
r1 14 17 22.2222
r2 13 17 81.994
r3 10 13 12.5926
r4 9 13 12.5926
r5 5 17 436.533
r6 2 5 362.812
.ends

.subckt PM_SRAMNSA_1%XI0/XI1/XI10/NET34 5 7 9 10 14
c0 9 0 0.00354253f
r1 14 20 22.2222
r2 13 20 81.5625
r3 10 13 12.5926
r4 9 13 12.5926
r5 5 20 439.853
r6 5 7 362.812
.ends

.subckt PM_SRAMNSA_1%XI0/XI1/XI10/NET36 5 7 9 10 14
c0 9 0 0.00354253f
r1 14 17 22.2222
r2 13 17 81.5625
r3 10 13 12.5926
r4 9 13 12.5926
r5 5 7 362.812
r6 5 17 439.853
.ends

.subckt PM_SRAMNSA_1%XI0/XI1/XI10/NET35 2 5 9 10 14
c0 9 0 0.00354562f
r1 14 17 22.2222
r2 13 17 81.994
r3 10 13 12.5926
r4 9 13 12.5926
r5 5 17 436.533
r6 2 5 362.812
.ends

.subckt PM_SRAMNSA_1%XI0/XI1/XI11/NET33 2 5 9 10 14
c0 9 0 0.00354562f
r1 14 17 22.2222
r2 13 17 81.994
r3 10 13 12.5926
r4 9 13 12.5926
r5 5 17 436.533
r6 2 5 362.812
.ends

.subckt PM_SRAMNSA_1%XI0/XI1/XI11/NET34 5 7 9 10 14
c0 9 0 0.00354253f
r1 14 20 22.2222
r2 13 20 81.5625
r3 10 13 12.5926
r4 9 13 12.5926
r5 5 20 439.853
r6 5 7 362.812
.ends

.subckt PM_SRAMNSA_1%XI0/XI1/XI11/NET36 5 7 9 10 14
c0 9 0 0.00354253f
r1 14 17 22.2222
r2 13 17 81.5625
r3 10 13 12.5926
r4 9 13 12.5926
r5 5 7 362.812
r6 5 17 439.853
.ends

.subckt PM_SRAMNSA_1%XI0/XI1/XI11/NET35 2 5 9 10 14
c0 9 0 0.00354562f
r1 14 17 22.2222
r2 13 17 81.994
r3 10 13 12.5926
r4 9 13 12.5926
r5 5 17 436.533
r6 2 5 362.812
.ends

.subckt PM_SRAMNSA_1%XI0/XI1/XI12/NET33 2 5 9 10 14
c0 9 0 0.00354562f
r1 14 17 22.2222
r2 13 17 81.994
r3 10 13 12.5926
r4 9 13 12.5926
r5 5 17 436.533
r6 2 5 362.812
.ends

.subckt PM_SRAMNSA_1%XI0/XI1/XI12/NET34 5 7 9 10 14
c0 9 0 0.00354253f
r1 14 20 22.2222
r2 13 20 81.5625
r3 10 13 12.5926
r4 9 13 12.5926
r5 5 20 439.853
r6 5 7 362.812
.ends

.subckt PM_SRAMNSA_1%XI0/XI1/XI12/NET36 5 7 9 10 14
c0 9 0 0.00354253f
r1 14 17 22.2222
r2 13 17 81.5625
r3 10 13 12.5926
r4 9 13 12.5926
r5 5 7 362.812
r6 5 17 439.853
.ends

.subckt PM_SRAMNSA_1%XI0/XI1/XI12/NET35 2 5 9 10 14
c0 9 0 0.00354562f
r1 14 17 22.2222
r2 13 17 81.994
r3 10 13 12.5926
r4 9 13 12.5926
r5 5 17 436.533
r6 2 5 362.812
.ends

.subckt PM_SRAMNSA_1%XI0/XI1/XI13/NET33 2 5 9 10 14
c0 9 0 0.00354562f
r1 14 17 22.2222
r2 13 17 81.994
r3 10 13 12.5926
r4 9 13 12.5926
r5 5 17 436.533
r6 2 5 362.812
.ends

.subckt PM_SRAMNSA_1%XI0/XI1/XI13/NET34 5 7 9 10 14
c0 9 0 0.00354253f
r1 14 20 22.2222
r2 13 20 81.5625
r3 10 13 12.5926
r4 9 13 12.5926
r5 5 20 439.853
r6 5 7 362.812
.ends

.subckt PM_SRAMNSA_1%XI0/XI1/XI13/NET36 5 7 9 10 14
c0 9 0 0.00354253f
r1 14 17 22.2222
r2 13 17 81.5625
r3 10 13 12.5926
r4 9 13 12.5926
r5 5 7 362.812
r6 5 17 439.853
.ends

.subckt PM_SRAMNSA_1%XI0/XI1/XI13/NET35 2 5 9 10 14
c0 9 0 0.00354562f
r1 14 17 22.2222
r2 13 17 81.994
r3 10 13 12.5926
r4 9 13 12.5926
r5 5 17 436.533
r6 2 5 362.812
.ends

.subckt PM_SRAMNSA_1%XI0/XI1/XI14/NET33 2 5 9 10 14
c0 9 0 0.00354562f
r1 14 17 22.2222
r2 13 17 81.994
r3 10 13 12.5926
r4 9 13 12.5926
r5 5 17 436.533
r6 2 5 362.812
.ends

.subckt PM_SRAMNSA_1%XI0/XI1/XI14/NET34 5 7 9 10 14
c0 9 0 0.00354253f
r1 14 20 22.2222
r2 13 20 81.5625
r3 10 13 12.5926
r4 9 13 12.5926
r5 5 20 439.853
r6 5 7 362.812
.ends

.subckt PM_SRAMNSA_1%XI0/XI1/XI14/NET36 5 7 9 10 14
c0 9 0 0.00354253f
r1 14 17 22.2222
r2 13 17 81.5625
r3 10 13 12.5926
r4 9 13 12.5926
r5 5 7 362.812
r6 5 17 439.853
.ends

.subckt PM_SRAMNSA_1%XI0/XI1/XI14/NET35 2 5 9 10 14
c0 9 0 0.00354562f
r1 14 17 22.2222
r2 13 17 81.994
r3 10 13 12.5926
r4 9 13 12.5926
r5 5 17 436.533
r6 2 5 362.812
.ends

.subckt PM_SRAMNSA_1%XI0/XI1/XI15/NET33 2 5 9 10 14
c0 9 0 0.00354562f
r1 14 17 22.2222
r2 13 17 81.994
r3 10 13 12.5926
r4 9 13 12.5926
r5 5 17 436.533
r6 2 5 362.812
.ends

.subckt PM_SRAMNSA_1%XI0/XI1/XI15/NET34 5 7 9 10 14
c0 9 0 0.00354253f
r1 14 20 22.2222
r2 13 20 81.5625
r3 10 13 12.5926
r4 9 13 12.5926
r5 5 20 439.853
r6 5 7 362.812
.ends

.subckt PM_SRAMNSA_1%XI0/XI1/XI15/NET36 5 7 9 10 14
c0 9 0 0.00354253f
r1 14 17 22.2222
r2 13 17 81.5625
r3 10 13 12.5926
r4 9 13 12.5926
r5 5 7 362.812
r6 5 17 439.853
.ends

.subckt PM_SRAMNSA_1%XI0/XI1/XI15/NET35 2 5 9 10 14
c0 9 0 0.00354562f
r1 14 17 22.2222
r2 13 17 81.994
r3 10 13 12.5926
r4 9 13 12.5926
r5 5 17 436.533
r6 2 5 362.812
.ends

.subckt PM_SRAMNSA_1%XI0/XI4/XI0/NET33 2 5 9 10 14
c0 9 0 0.00354562f
r1 14 17 22.2222
r2 13 17 81.994
r3 10 13 12.5926
r4 9 13 12.5926
r5 5 17 436.533
r6 2 5 362.812
.ends

.subckt PM_SRAMNSA_1%XI0/XI4/XI0/NET34 5 7 9 10 14
c0 9 0 0.00354253f
r1 14 20 22.2222
r2 13 20 81.5625
r3 10 13 12.5926
r4 9 13 12.5926
r5 5 20 439.853
r6 5 7 362.812
.ends

.subckt PM_SRAMNSA_1%XI0/XI4/XI0/NET36 5 7 9 10 14
c0 9 0 0.00354253f
r1 14 17 22.2222
r2 13 17 81.5625
r3 10 13 12.5926
r4 9 13 12.5926
r5 5 7 362.812
r6 5 17 439.853
.ends

.subckt PM_SRAMNSA_1%XI0/XI4/XI0/NET35 2 5 9 10 14
c0 9 0 0.00354562f
r1 14 17 22.2222
r2 13 17 81.994
r3 10 13 12.5926
r4 9 13 12.5926
r5 5 17 436.533
r6 2 5 362.812
.ends

.subckt PM_SRAMNSA_1%XI0/XI4/XI1/NET33 2 5 9 10 14
c0 9 0 0.00354562f
r1 14 17 22.2222
r2 13 17 81.994
r3 10 13 12.5926
r4 9 13 12.5926
r5 5 17 436.533
r6 2 5 362.812
.ends

.subckt PM_SRAMNSA_1%XI0/XI4/XI1/NET34 5 7 9 10 14
c0 9 0 0.00354253f
r1 14 20 22.2222
r2 13 20 81.5625
r3 10 13 12.5926
r4 9 13 12.5926
r5 5 20 439.853
r6 5 7 362.812
.ends

.subckt PM_SRAMNSA_1%XI0/XI4/XI1/NET36 5 7 9 10 14
c0 9 0 0.00354253f
r1 14 17 22.2222
r2 13 17 81.5625
r3 10 13 12.5926
r4 9 13 12.5926
r5 5 7 362.812
r6 5 17 439.853
.ends

.subckt PM_SRAMNSA_1%XI0/XI4/XI1/NET35 2 5 9 10 14
c0 9 0 0.00354562f
r1 14 17 22.2222
r2 13 17 81.994
r3 10 13 12.5926
r4 9 13 12.5926
r5 5 17 436.533
r6 2 5 362.812
.ends

.subckt PM_SRAMNSA_1%XI0/XI4/XI2/NET33 2 5 9 10 14
c0 9 0 0.00354562f
r1 14 17 22.2222
r2 13 17 81.994
r3 10 13 12.5926
r4 9 13 12.5926
r5 5 17 436.533
r6 2 5 362.812
.ends

.subckt PM_SRAMNSA_1%XI0/XI4/XI2/NET34 5 7 9 10 14
c0 9 0 0.00354253f
r1 14 20 22.2222
r2 13 20 81.5625
r3 10 13 12.5926
r4 9 13 12.5926
r5 5 20 439.853
r6 5 7 362.812
.ends

.subckt PM_SRAMNSA_1%XI0/XI4/XI2/NET36 5 7 9 10 14
c0 9 0 0.00354253f
r1 14 17 22.2222
r2 13 17 81.5625
r3 10 13 12.5926
r4 9 13 12.5926
r5 5 7 362.812
r6 5 17 439.853
.ends

.subckt PM_SRAMNSA_1%XI0/XI4/XI2/NET35 2 5 9 10 14
c0 9 0 0.00354562f
r1 14 17 22.2222
r2 13 17 81.994
r3 10 13 12.5926
r4 9 13 12.5926
r5 5 17 436.533
r6 2 5 362.812
.ends

.subckt PM_SRAMNSA_1%XI0/XI4/XI3/NET33 2 5 9 10 14
c0 9 0 0.00354562f
r1 14 17 22.2222
r2 13 17 81.994
r3 10 13 12.5926
r4 9 13 12.5926
r5 5 17 436.533
r6 2 5 362.812
.ends

.subckt PM_SRAMNSA_1%XI0/XI4/XI3/NET34 5 7 9 10 14
c0 9 0 0.00354253f
r1 14 20 22.2222
r2 13 20 81.5625
r3 10 13 12.5926
r4 9 13 12.5926
r5 5 20 439.853
r6 5 7 362.812
.ends

.subckt PM_SRAMNSA_1%XI0/XI4/XI3/NET36 5 7 9 10 14
c0 9 0 0.00354253f
r1 14 17 22.2222
r2 13 17 81.5625
r3 10 13 12.5926
r4 9 13 12.5926
r5 5 7 362.812
r6 5 17 439.853
.ends

.subckt PM_SRAMNSA_1%XI0/XI4/XI3/NET35 2 5 9 10 14
c0 9 0 0.00354562f
r1 14 17 22.2222
r2 13 17 81.994
r3 10 13 12.5926
r4 9 13 12.5926
r5 5 17 436.533
r6 2 5 362.812
.ends

.subckt PM_SRAMNSA_1%XI0/XI4/XI4/NET33 2 5 9 10 14
c0 9 0 0.00354562f
r1 14 17 22.2222
r2 13 17 81.994
r3 10 13 12.5926
r4 9 13 12.5926
r5 5 17 436.533
r6 2 5 362.812
.ends

.subckt PM_SRAMNSA_1%XI0/XI4/XI4/NET34 5 7 9 10 14
c0 9 0 0.00354253f
r1 14 20 22.2222
r2 13 20 81.5625
r3 10 13 12.5926
r4 9 13 12.5926
r5 5 20 439.853
r6 5 7 362.812
.ends

.subckt PM_SRAMNSA_1%XI0/XI4/XI4/NET36 5 7 9 10 14
c0 9 0 0.00354253f
r1 14 17 22.2222
r2 13 17 81.5625
r3 10 13 12.5926
r4 9 13 12.5926
r5 5 7 362.812
r6 5 17 439.853
.ends

.subckt PM_SRAMNSA_1%XI0/XI4/XI4/NET35 2 5 9 10 14
c0 9 0 0.00354562f
r1 14 17 22.2222
r2 13 17 81.994
r3 10 13 12.5926
r4 9 13 12.5926
r5 5 17 436.533
r6 2 5 362.812
.ends

.subckt PM_SRAMNSA_1%XI0/XI4/XI5/NET33 2 5 9 10 14
c0 9 0 0.00354562f
r1 14 17 22.2222
r2 13 17 81.994
r3 10 13 12.5926
r4 9 13 12.5926
r5 5 17 436.533
r6 2 5 362.812
.ends

.subckt PM_SRAMNSA_1%XI0/XI4/XI5/NET34 5 7 9 10 14
c0 9 0 0.00354253f
r1 14 20 22.2222
r2 13 20 81.5625
r3 10 13 12.5926
r4 9 13 12.5926
r5 5 20 439.853
r6 5 7 362.812
.ends

.subckt PM_SRAMNSA_1%XI0/XI4/XI5/NET36 5 7 9 10 14
c0 9 0 0.00354253f
r1 14 17 22.2222
r2 13 17 81.5625
r3 10 13 12.5926
r4 9 13 12.5926
r5 5 7 362.812
r6 5 17 439.853
.ends

.subckt PM_SRAMNSA_1%XI0/XI4/XI5/NET35 2 5 9 10 14
c0 9 0 0.00354562f
r1 14 17 22.2222
r2 13 17 81.994
r3 10 13 12.5926
r4 9 13 12.5926
r5 5 17 436.533
r6 2 5 362.812
.ends

.subckt PM_SRAMNSA_1%XI0/XI4/XI6/NET33 2 5 9 10 14
c0 9 0 0.00354562f
r1 14 17 22.2222
r2 13 17 81.994
r3 10 13 12.5926
r4 9 13 12.5926
r5 5 17 436.533
r6 2 5 362.812
.ends

.subckt PM_SRAMNSA_1%XI0/XI4/XI6/NET34 5 7 9 10 14
c0 9 0 0.00354253f
r1 14 20 22.2222
r2 13 20 81.5625
r3 10 13 12.5926
r4 9 13 12.5926
r5 5 20 439.853
r6 5 7 362.812
.ends

.subckt PM_SRAMNSA_1%XI0/XI4/XI6/NET36 5 7 9 10 14
c0 9 0 0.00354253f
r1 14 17 22.2222
r2 13 17 81.5625
r3 10 13 12.5926
r4 9 13 12.5926
r5 5 7 362.812
r6 5 17 439.853
.ends

.subckt PM_SRAMNSA_1%XI0/XI4/XI6/NET35 2 5 9 10 14
c0 9 0 0.00354562f
r1 14 17 22.2222
r2 13 17 81.994
r3 10 13 12.5926
r4 9 13 12.5926
r5 5 17 436.533
r6 2 5 362.812
.ends

.subckt PM_SRAMNSA_1%XI0/XI4/XI7/NET33 2 5 9 10 14
c0 9 0 0.00354562f
r1 14 17 22.2222
r2 13 17 81.994
r3 10 13 12.5926
r4 9 13 12.5926
r5 5 17 436.533
r6 2 5 362.812
.ends

.subckt PM_SRAMNSA_1%XI0/XI4/XI7/NET34 5 7 9 10 14
c0 9 0 0.00354253f
r1 14 20 22.2222
r2 13 20 81.5625
r3 10 13 12.5926
r4 9 13 12.5926
r5 5 20 439.853
r6 5 7 362.812
.ends

.subckt PM_SRAMNSA_1%XI0/XI4/XI7/NET36 5 7 9 10 14
c0 9 0 0.00354253f
r1 14 17 22.2222
r2 13 17 81.5625
r3 10 13 12.5926
r4 9 13 12.5926
r5 5 7 362.812
r6 5 17 439.853
.ends

.subckt PM_SRAMNSA_1%XI0/XI4/XI7/NET35 2 5 9 10 14
c0 9 0 0.00354562f
r1 14 17 22.2222
r2 13 17 81.994