* File: netlist.sp
* Created: Sat Jun 14 09:12:51 2025
* Program "Calibre xRC"
* Version "v2019.2_26.18"
* 
.include "netlist.sp.pex"
.subckt SRAMnSA_1  VSS BL<15> VDD BLN<15> BL<14> BLN<14> BL<13> BLN<13> BL<12>
+ BLN<12> BL_S<15> BL_S<14> BL_S<13> BL_S<12> BLN_S<15> BLN_S<14> BLN_S<13>
+ BLN_S<12> BL<11> BLN<11> BL<10> BLN<10> BL<9> BLN<9> BL<8> BLN<8> BL_S<11>
+ BL_S<10> BL_S<9> BL_S<8> BLN_S<11> BLN_S<10> BLN_S<9> BLN_S<8> BL<7> BLN<7>
+ BL<6> BLN<6> BL<5> BLN<5> BL<4> BLN<4> BL_S<7> BL_S<6> BL_S<5> BL_S<4>
+ BLN_S<7> BLN_S<6> BLN_S<5> BLN_S<4> BL<3> BLN<3> BL<2> BLN<2> BL<1> BLN<1>
+ BL<0> BLN<0> BL_S<3> BL_S<2> BL_S<1> BL_S<0> BLN_S<3> BLN_S<2> BLN_S<1>
+ BLN_S<0> SA_EN WL<0> WL<1> WL<2> WL<3> WL<4> WL<5> WL<6> WL<7> WL<8> WL<9>
+ WL<10> WL<11> WL<12> WL<13> WL<14> WL<15> WL<16> WL<17> WL<18> WL<19> WL<20>
+ WL<21> WL<22> WL<23> WL<24> WL<25> WL<26> WL<27> WL<28> WL<29> WL<30> WL<31>
+ WL<32> WL<33> WL<34> WL<35> WL<36> WL<37> WL<38> WL<39> WL<40> WL<41> WL<42>
+ WL<43> WL<44> WL<45> WL<46> WL<47> WL<48> WL<49> WL<50> WL<51> WL<52> WL<53>
+ WL<54> WL<55> WL<56> WL<57> WL<58> WL<59> WL<60> WL<61> WL<62> WL<63> WL<64>
+ WL<65> WL<66> WL<67> WL<68> WL<69> WL<70> WL<71> WL<72> WL<73> WL<74> WL<75>
+ WL<76> WL<77> WL<78> WL<79> WL<80> WL<81> WL<82> WL<83> WL<84> WL<85> WL<86>
+ WL<87> WL<88> WL<89> WL<90> WL<91> WL<92> WL<93> WL<94> WL<95> WL<96> WL<97>
+ WL<98> WL<99> WL<100> WL<101> WL<102> WL<103> WL<104> WL<105> WL<106> WL<107>
+ WL<108> WL<109> WL<110> WL<111> WL<112> WL<113> WL<114> WL<115> WL<116>
+ WL<117> WL<118> WL<119> WL<120> WL<121> WL<122> WL<123> WL<124> WL<125>
+ WL<126> WL<127>
* 
* WL<127>	WL<127>
* WL<126>	WL<126>
* WL<125>	WL<125>
* WL<124>	WL<124>
* WL<123>	WL<123>
* WL<122>	WL<122>
* WL<121>	WL<121>
* WL<120>	WL<120>
* WL<119>	WL<119>
* WL<118>	WL<118>
* WL<117>	WL<117>
* WL<116>	WL<116>
* WL<115>	WL<115>
* WL<114>	WL<114>
* WL<113>	WL<113>
* WL<112>	WL<112>
* WL<111>	WL<111>
* WL<110>	WL<110>
* WL<109>	WL<109>
* WL<108>	WL<108>
* WL<107>	WL<107>
* WL<106>	WL<106>
* WL<105>	WL<105>
* WL<104>	WL<104>
* WL<103>	WL<103>
* WL<102>	WL<102>
* WL<101>	WL<101>
* WL<100>	WL<100>
* WL<99>	WL<99>
* WL<98>	WL<98>
* WL<97>	WL<97>
* WL<96>	WL<96>
* WL<95>	WL<95>
* WL<94>	WL<94>
* WL<93>	WL<93>
* WL<92>	WL<92>
* WL<91>	WL<91>
* WL<90>	WL<90>
* WL<89>	WL<89>
* WL<88>	WL<88>
* WL<87>	WL<87>
* WL<86>	WL<86>
* WL<85>	WL<85>
* WL<84>	WL<84>
* WL<83>	WL<83>
* WL<82>	WL<82>
* WL<81>	WL<81>
* WL<80>	WL<80>
* WL<79>	WL<79>
* WL<78>	WL<78>
* WL<77>	WL<77>
* WL<76>	WL<76>
* WL<75>	WL<75>
* WL<74>	WL<74>
* WL<73>	WL<73>
* WL<72>	WL<72>
* WL<71>	WL<71>
* WL<70>	WL<70>
* WL<69>	WL<69>
* WL<68>	WL<68>
* WL<67>	WL<67>
* WL<66>	WL<66>
* WL<65>	WL<65>
* WL<64>	WL<64>
* WL<63>	WL<63>
* WL<62>	WL<62>
* WL<61>	WL<61>
* WL<60>	WL<60>
* WL<59>	WL<59>
* WL<58>	WL<58>
* WL<57>	WL<57>
* WL<56>	WL<56>
* WL<55>	WL<55>
* WL<54>	WL<54>
* WL<53>	WL<53>
* WL<52>	WL<52>
* WL<51>	WL<51>
* WL<50>	WL<50>
* WL<49>	WL<49>
* WL<48>	WL<48>
* WL<47>	WL<47>
* WL<46>	WL<46>
* WL<45>	WL<45>
* WL<44>	WL<44>
* WL<43>	WL<43>
* WL<42>	WL<42>
* WL<41>	WL<41>
* WL<40>	WL<40>
* WL<39>	WL<39>
* WL<38>	WL<38>
* WL<37>	WL<37>
* WL<36>	WL<36>
* WL<35>	WL<35>
* WL<34>	WL<34>
* WL<33>	WL<33>
* WL<32>	WL<32>
* WL<31>	WL<31>
* WL<30>	WL<30>
* WL<29>	WL<29>
* WL<28>	WL<28>
* WL<27>	WL<27>
* WL<26>	WL<26>
* WL<25>	WL<25>
* WL<24>	WL<24>
* WL<23>	WL<23>
* WL<22>	WL<22>
* WL<21>	WL<21>
* WL<20>	WL<20>
* WL<19>	WL<19>
* WL<18>	WL<18>
* WL<17>	WL<17>
* WL<16>	WL<16>
* WL<15>	WL<15>
* WL<14>	WL<14>
* WL<13>	WL<13>
* WL<12>	WL<12>
* WL<11>	WL<11>
* WL<10>	WL<10>
* WL<9>	WL<9>
* WL<8>	WL<8>
* WL<7>	WL<7>
* WL<6>	WL<6>
* WL<5>	WL<5>
* WL<4>	WL<4>
* WL<3>	WL<3>
* WL<2>	WL<2>
* WL<1>	WL<1>
* WL<0>	WL<0>
* SA_EN	SA_EN
* BLN_S<0>	BLN_S<0>
* BLN_S<1>	BLN_S<1>
* BLN_S<2>	BLN_S<2>
* BLN_S<3>	BLN_S<3>
* BL_S<0>	BL_S<0>
* BL_S<1>	BL_S<1>
* BL_S<2>	BL_S<2>
* BL_S<3>	BL_S<3>
* BLN<0>	BLN<0>
* BL<0>	BL<0>
* BLN<1>	BLN<1>
* BL<1>	BL<1>
* BLN<2>	BLN<2>
* BL<2>	BL<2>
* BLN<3>	BLN<3>
* BL<3>	BL<3>
* BLN_S<4>	BLN_S<4>
* BLN_S<5>	BLN_S<5>
* BLN_S<6>	BLN_S<6>
* BLN_S<7>	BLN_S<7>
* BL_S<4>	BL_S<4>
* BL_S<5>	BL_S<5>
* BL_S<6>	BL_S<6>
* BL_S<7>	BL_S<7>
* BLN<4>	BLN<4>
* BL<4>	BL<4>
* BLN<5>	BLN<5>
* BL<5>	BL<5>
* BLN<6>	BLN<6>
* BL<6>	BL<6>
* BLN<7>	BLN<7>
* BL<7>	BL<7>
* BLN_S<8>	BLN_S<8>
* BLN_S<9>	BLN_S<9>
* BLN_S<10>	BLN_S<10>
* BLN_S<11>	BLN_S<11>
* BL_S<8>	BL_S<8>
* BL_S<9>	BL_S<9>
* BL_S<10>	BL_S<10>
* BL_S<11>	BL_S<11>
* BLN<8>	BLN<8>
* BL<8>	BL<8>
* BLN<9>	BLN<9>
* BL<9>	BL<9>
* BLN<10>	BLN<10>
* BL<10>	BL<10>
* BLN<11>	BLN<11>
* BL<11>	BL<11>
* BLN_S<12>	BLN_S<12>
* BLN_S<13>	BLN_S<13>
* BLN_S<14>	BLN_S<14>
* BLN_S<15>	BLN_S<15>
* BL_S<12>	BL_S<12>
* BL_S<13>	BL_S<13>
* BL_S<14>	BL_S<14>
* BL_S<15>	BL_S<15>
* BLN<12>	BLN<12>
* BL<12>	BL<12>
* BLN<13>	BLN<13>
* BL<13>	BL<13>
* BLN<14>	BLN<14>
* BL<14>	BL<14>
* BLN<15>	BLN<15>
* VDD	VDD
* BL<15>	BL<15>
* VSS	VSS
mXI1/XI0/MM1 N_BLN_S<15>_XI1/XI0/MM1_d N_BL_S<15>_XI1/XI0/MM1_g
+ N_XI1/XI0/NET3_XI1/XI0/MM1_s N_VSS_XI1/XI0/MM1_b NMOS_SRAM L=2e-08 W=2.7e-08
+ NFIN=1
mXI1/XI0/MM0 N_BL_S<15>_XI1/XI0/MM0_d N_BLN_S<15>_XI1/XI0/MM0_g
+ N_XI1/XI0/NET3_XI1/XI0/MM0_s N_VSS_XI1/XI0/MM0_b NMOS_SRAM L=2e-08 W=2.7e-08
+ NFIN=1
mXI1/XI0/MM2 N_XI1/XI0/NET3_XI1/XI0/MM2_d N_SA_EN_XI1/XI0/MM2_g
+ N_VSS_XI1/XI0/MM2_s N_VSS_XI1/XI0/MM0_b NMOS_SRAM L=2e-08 W=2.7e-08 NFIN=1
mXI1/XI0/MM6 N_BL_S<15>_XI1/XI0/MM6_d N_SA_EN_XI1/XI0/MM6_g
+ N_BL<15>_XI1/XI0/MM6_s N_VDD_XI1/XI0/MM6_b PMOS_SRAM L=2e-08 W=2.7e-08 NFIN=1
mXI1/XI0/MM4 N_BLN_S<15>_XI1/XI0/MM4_d N_BL_S<15>_XI1/XI0/MM4_g
+ N_VDD_XI1/XI0/MM4_s N_VDD_XI1/XI0/MM6_b PMOS_SRAM L=2e-08 W=2.7e-08 NFIN=1
mXI1/XI0/MM3 N_BL_S<15>_XI1/XI0/MM3_d N_BLN_S<15>_XI1/XI0/MM3_g
+ N_VDD_XI1/XI0/MM3_s N_VDD_XI1/XI0/MM6_b PMOS_SRAM L=2e-08 W=2.7e-08 NFIN=1
mXI1/XI0/MM5 N_BLN_S<15>_XI1/XI0/MM5_d N_SA_EN_XI1/XI0/MM5_g
+ N_BLN<15>_XI1/XI0/MM5_s N_VDD_XI1/XI0/MM6_b PMOS_SRAM L=2e-08 W=2.7e-08 NFIN=1
mXI1/XI4/MM1 N_BLN_S<14>_XI1/XI4/MM1_d N_BL_S<14>_XI1/XI4/MM1_g
+ N_XI1/XI4/NET3_XI1/XI4/MM1_s N_VSS_XI1/XI4/MM1_b NMOS_SRAM L=2e-08 W=2.7e-08
+ NFIN=1
mXI1/XI4/MM0 N_BL_S<14>_XI1/XI4/MM0_d N_BLN_S<14>_XI1/XI4/MM0_g
+ N_XI1/XI4/NET3_XI1/XI4/MM0_s N_VSS_XI1/XI0/MM1_b NMOS_SRAM L=2e-08 W=2.7e-08
+ NFIN=1
mXI1/XI4/MM2 N_XI1/XI4/NET3_XI1/XI4/MM2_d N_SA_EN_XI1/XI4/MM2_g
+ N_VSS_XI1/XI4/MM2_s N_VSS_XI1/XI0/MM1_b NMOS_SRAM L=2e-08 W=2.7e-08 NFIN=1
mXI1/XI4/MM6 N_BL_S<14>_XI1/XI4/MM6_d N_SA_EN_XI1/XI4/MM6_g
+ N_BL<14>_XI1/XI4/MM6_s N_VDD_XI1/XI4/MM6_b PMOS_SRAM L=2e-08 W=2.7e-08 NFIN=1
mXI1/XI4/MM4 N_BLN_S<14>_XI1/XI4/MM4_d N_BL_S<14>_XI1/XI4/MM4_g
+ N_VDD_XI1/XI4/MM4_s N_VDD_XI1/XI4/MM6_b PMOS_SRAM L=2e-08 W=2.7e-08 NFIN=1
mXI1/XI4/MM3 N_BL_S<14>_XI1/XI4/MM3_d N_BLN_S<14>_XI1/XI4/MM3_g
+ N_VDD_XI1/XI4/MM3_s N_VDD_XI1/XI4/MM6_b PMOS_SRAM L=2e-08 W=2.7e-08 NFIN=1
mXI1/XI4/MM5 N_BLN_S<14>_XI1/XI4/MM5_d N_SA_EN_XI1/XI4/MM5_g
+ N_BLN<14>_XI1/XI4/MM5_s N_VDD_XI1/XI4/MM6_b PMOS_SRAM L=2e-08 W=2.7e-08 NFIN=1
mXI1/XI8/MM1 N_BLN_S<13>_XI1/XI8/MM1_d N_BL_S<13>_XI1/XI8/MM1_g
+ N_XI1/XI8/NET3_XI1/XI8/MM1_s N_VSS_XI1/XI8/MM1_b NMOS_SRAM L=2e-08 W=2.7e-08
+ NFIN=1
mXI1/XI8/MM0 N_BL_S<13>_XI1/XI8/MM0_d N_BLN_S<13>_XI1/XI8/MM0_g
+ N_XI1/XI8/NET3_XI1/XI8/MM0_s N_VSS_XI1/XI4/MM1_b NMOS_SRAM L=2e-08 W=2.7e-08
+ NFIN=1
mXI1/XI8/MM2 N_XI1/XI8/NET3_XI1/XI8/MM2_d N_SA_EN_XI1/XI8/MM2_g
+ N_VSS_XI1/XI8/MM2_s N_VSS_XI1/XI4/MM1_b NMOS_SRAM L=2e-08 W=2.7e-08 NFIN=1
mXI1/XI8/MM6 N_BL_S<13>_XI1/XI8/MM6_d N_SA_EN_XI1/XI8/MM6_g
+ N_BL<13>_XI1/XI8/MM6_s N_VDD_XI1/XI8/MM6_b PMOS_SRAM L=2e-08 W=2.7e-08 NFIN=1
mXI1/XI8/MM4 N_BLN_S<13>_XI1/XI8/MM4_d N_BL_S<13>_XI1/XI8/MM4_g
+ N_VDD_XI1/XI8/MM4_s N_VDD_XI1/XI8/MM6_b PMOS_SRAM L=2e-08 W=2.7e-08 NFIN=1
mXI1/XI8/MM3 N_BL_S<13>_XI1/XI8/MM3_d N_BLN_S<13>_XI1/XI8/MM3_g
+ N_VDD_XI1/XI8/MM3_s N_VDD_XI1/XI8/MM6_b PMOS_SRAM L=2e-08 W=2.7e-08 NFIN=1
mXI1/XI8/MM5 N_BLN_S<13>_XI1/XI8/MM5_d N_SA_EN_XI1/XI8/MM5_g
+ N_BLN<13>_XI1/XI8/MM5_s N_VDD_XI1/XI8/MM6_b PMOS_SRAM L=2e-08 W=2.7e-08 NFIN=1
mXI1/XI12/MM1 N_BLN_S<12>_XI1/XI12/MM1_d N_BL_S<12>_XI1/XI12/MM1_g
+ N_XI1/XI12/NET3_XI1/XI12/MM1_s N_VSS_XI1/XI12/MM1_b NMOS_SRAM L=2e-08
+ W=2.7e-08 NFIN=1
mXI1/XI12/MM0 N_BL_S<12>_XI1/XI12/MM0_d N_BLN_S<12>_XI1/XI12/MM0_g
+ N_XI1/XI12/NET3_XI1/XI12/MM0_s N_VSS_XI1/XI8/MM1_b NMOS_SRAM L=2e-08 W=2.7e-08
+ NFIN=1
mXI1/XI12/MM2 N_XI1/XI12/NET3_XI1/XI12/MM2_d N_SA_EN_XI1/XI12/MM2_g
+ N_VSS_XI1/XI12/MM2_s N_VSS_XI1/XI8/MM1_b NMOS_SRAM L=2e-08 W=2.7e-08 NFIN=1
mXI1/XI12/MM6 N_BL_S<12>_XI1/XI12/MM6_d N_SA_EN_XI1/XI12/MM6_g
+ N_BL<12>_XI1/XI12/MM6_s N_VDD_XI1/XI12/MM6_b PMOS_SRAM L=2e-08 W=2.7e-08
+ NFIN=1
mXI1/XI12/MM4 N_BLN_S<12>_XI1/XI12/MM4_d N_BL_S<12>_XI1/XI12/MM4_g
+ N_VDD_XI1/XI12/MM4_s N_VDD_XI1/XI12/MM6_b PMOS_SRAM L=2e-08 W=2.7e-08 NFIN=1
mXI1/XI12/MM3 N_BL_S<12>_XI1/XI12/MM3_d N_BLN_S<12>_XI1/XI12/MM3_g
+ N_VDD_XI1/XI12/MM3_s N_VDD_XI1/XI12/MM6_b PMOS_SRAM L=2e-08 W=2.7e-08 NFIN=1
mXI1/XI12/MM5 N_BLN_S<12>_XI1/XI12/MM5_d N_SA_EN_XI1/XI12/MM5_g
+ N_BLN<12>_XI1/XI12/MM5_s N_VDD_XI1/XI12/MM6_b PMOS_SRAM L=2e-08 W=2.7e-08
+ NFIN=1
mXI1/XI1/MM1 N_BLN_S<11>_XI1/XI1/MM1_d N_BL_S<11>_XI1/XI1/MM1_g
+ N_XI1/XI1/NET3_XI1/XI1/MM1_s N_VSS_XI1/XI1/MM1_b NMOS_SRAM L=2e-08 W=2.7e-08
+ NFIN=1
mXI1/XI1/MM0 N_BL_S<11>_XI1/XI1/MM0_d N_BLN_S<11>_XI1/XI1/MM0_g
+ N_XI1/XI1/NET3_XI1/XI1/MM0_s N_VSS_XI1/XI12/MM1_b NMOS_SRAM L=2e-08 W=2.7e-08
+ NFIN=1
mXI1/XI1/MM2 N_XI1/XI1/NET3_XI1/XI1/MM2_d N_SA_EN_XI1/XI1/MM2_g
+ N_VSS_XI1/XI1/MM2_s N_VSS_XI1/XI12/MM1_b NMOS_SRAM L=2e-08 W=2.7e-08 NFIN=1
mXI1/XI1/MM6 N_BL_S<11>_XI1/XI1/MM6_d N_SA_EN_XI1/XI1/MM6_g
+ N_BL<11>_XI1/XI1/MM6_s N_VDD_XI1/XI1/MM6_b PMOS_SRAM L=2e-08 W=2.7e-08 NFIN=1
mXI1/XI1/MM4 N_BLN_S<11>_XI1/XI1/MM4_d N_BL_S<11>_XI1/XI1/MM4_g
+ N_VDD_XI1/XI1/MM4_s N_VDD_XI1/XI1/MM6_b PMOS_SRAM L=2e-08 W=2.7e-08 NFIN=1
mXI1/XI1/MM3 N_BL_S<11>_XI1/XI1/MM3_d N_BLN_S<11>_XI1/XI1/MM3_g
+ N_VDD_XI1/XI1/MM3_s N_VDD_XI1/XI1/MM6_b PMOS_SRAM L=2e-08 W=2.7e-08 NFIN=1
mXI1/XI1/MM5 N_BLN_S<11>_XI1/XI1/MM5_d N_SA_EN_XI1/XI1/MM5_g
+ N_BLN<11>_XI1/XI1/MM5_s N_VDD_XI1/XI1/MM6_b PMOS_SRAM L=2e-08 W=2.7e-08 NFIN=1
mXI1/XI5/MM1 N_BLN_S<10>_XI1/XI5/MM1_d N_BL_S<10>_XI1/XI5/MM1_g
+ N_XI1/XI5/NET3_XI1/XI5/MM1_s N_VSS_XI1/XI5/MM1_b NMOS_SRAM L=2e-08 W=2.7e-08
+ NFIN=1
mXI1/XI5/MM0 N_BL_S<10>_XI1/XI5/MM0_d N_BLN_S<10>_XI1/XI5/MM0_g
+ N_XI1/XI5/NET3_XI1/XI5/MM0_s N_VSS_XI1/XI1/MM1_b NMOS_SRAM L=2e-08 W=2.7e-08
+ NFIN=1
mXI1/XI5/MM2 N_XI1/XI5/NET3_XI1/XI5/MM2_d N_SA_EN_XI1/XI5/MM2_g
+ N_VSS_XI1/XI5/MM2_s N_VSS_XI1/XI1/MM1_b NMOS_SRAM L=2e-08 W=2.7e-08 NFIN=1
mXI1/XI5/MM6 N_BL_S<10>_XI1/XI5/MM6_d N_SA_EN_XI1/XI5/MM6_g
+ N_BL<10>_XI1/XI5/MM6_s N_VDD_XI1/XI5/MM6_b PMOS_SRAM L=2e-08 W=2.7e-08 NFIN=1
mXI1/XI5/MM4 N_BLN_S<10>_XI1/XI5/MM4_d N_BL_S<10>_XI1/XI5/MM4_g
+ N_VDD_XI1/XI5/MM4_s N_VDD_XI1/XI5/MM6_b PMOS_SRAM L=2e-08 W=2.7e-08 NFIN=1
mXI1/XI5/MM3 N_BL_S<10>_XI1/XI5/MM3_d N_BLN_S<10>_XI1/XI5/MM3_g
+ N_VDD_XI1/XI5/MM3_s N_VDD_XI1/XI5/MM6_b PMOS_SRAM L=2e-08 W=2.7e-08 NFIN=1
mXI1/XI5/MM5 N_BLN_S<10>_XI1/XI5/MM5_d N_SA_EN_XI1/XI5/MM5_g
+ N_BLN<10>_XI1/XI5/MM5_s N_VDD_XI1/XI5/MM6_b PMOS_SRAM L=2e-08 W=2.7e-08 NFIN=1
mXI1/XI9/MM1 N_BLN_S<9>_XI1/XI9/MM1_d N_BL_S<9>_XI1/XI9/MM1_g
+ N_XI1/XI9/NET3_XI1/XI9/MM1_s N_VSS_XI1/XI9/MM1_b NMOS_SRAM L=2e-08 W=2.7e-08
+ NFIN=1
mXI1/XI9/MM0 N_BL_S<9>_XI1/XI9/MM0_d N_BLN_S<9>_XI1/XI9/MM0_g
+ N_XI1/XI9/NET3_XI1/XI9/MM0_s N_VSS_XI1/XI5/MM1_b NMOS_SRAM L=2e-08 W=2.7e-08
+ NFIN=1
mXI1/XI9/MM2 N_XI1/XI9/NET3_XI1/XI9/MM2_d N_SA_EN_XI1/XI9/MM2_g
+ N_VSS_XI1/XI9/MM2_s N_VSS_XI1/XI5/MM1_b NMOS_SRAM L=2e-08 W=2.7e-08 NFIN=1
mXI1/XI9/MM6 N_BL_S<9>_XI1/XI9/MM6_d N_SA_EN_XI1/XI9/MM6_g N_BL<9>_XI1/XI9/MM6_s
+ N_VDD_XI1/XI9/MM6_b PMOS_SRAM L=2e-08 W=2.7e-08 NFIN=1
mXI1/XI9/MM4 N_BLN_S<9>_XI1/XI9/MM4_d N_BL_S<9>_XI1/XI9/MM4_g
+ N_VDD_XI1/XI9/MM4_s N_VDD_XI1/XI9/MM6_b PMOS_SRAM L=2e-08 W=2.7e-08 NFIN=1
mXI1/XI9/MM3 N_BL_S<9>_XI1/XI9/MM3_d N_BLN_S<9>_XI1/XI9/MM3_g
+ N_VDD_XI1/XI9/MM3_s N_VDD_XI1/XI9/MM6_b PMOS_SRAM L=2e-08 W=2.7e-08 NFIN=1
mXI1/XI9/MM5 N_BLN_S<9>_XI1/XI9/MM5_d N_SA_EN_XI1/XI9/MM5_g
+ N_BLN<9>_XI1/XI9/MM5_s N_VDD_XI1/XI9/MM6_b PMOS_SRAM L=2e-08 W=2.7e-08 NFIN=1
mXI1/XI13/MM1 N_BLN_S<8>_XI1/XI13/MM1_d N_BL_S<8>_XI1/XI13/MM1_g
+ N_XI1/XI13/NET3_XI1/XI13/MM1_s N_VSS_XI1/XI13/MM1_b NMOS_SRAM L=2e-08
+ W=2.7e-08 NFIN=1
mXI1/XI13/MM0 N_BL_S<8>_XI1/XI13/MM0_d N_BLN_S<8>_XI1/XI13/MM0_g
+ N_XI1/XI13/NET3_XI1/XI13/MM0_s N_VSS_XI1/XI9/MM1_b NMOS_SRAM L=2e-08 W=2.7e-08
+ NFIN=1
mXI1/XI13/MM2 N_XI1/XI13/NET3_XI1/XI13/MM2_d N_SA_EN_XI1/XI13/MM2_g
+ N_VSS_XI1/XI13/MM2_s N_VSS_XI1/XI9/MM1_b NMOS_SRAM L=2e-08 W=2.7e-08 NFIN=1
mXI1/XI13/MM6 N_BL_S<8>_XI1/XI13/MM6_d N_SA_EN_XI1/XI13/MM6_g
+ N_BL<8>_XI1/XI13/MM6_s N_VDD_XI1/XI13/MM6_b PMOS_SRAM L=2e-08 W=2.7e-08 NFIN=1
mXI1/XI13/MM4 N_BLN_S<8>_XI1/XI13/MM4_d N_BL_S<8>_XI1/XI13/MM4_g
+ N_VDD_XI1/XI13/MM4_s N_VDD_XI1/XI13/MM6_b PMOS_SRAM L=2e-08 W=2.7e-08 NFIN=1
mXI1/XI13/MM3 N_BL_S<8>_XI1/XI13/MM3_d N_BLN_S<8>_XI1/XI13/MM3_g
+ N_VDD_XI1/XI13/MM3_s N_VDD_XI1/XI13/MM6_b PMOS_SRAM L=2e-08 W=2.7e-08 NFIN=1
mXI1/XI13/MM5 N_BLN_S<8>_XI1/XI13/MM5_d N_SA_EN_XI1/XI13/MM5_g
+ N_BLN<8>_XI1/XI13/MM5_s N_VDD_XI1/XI13/MM6_b PMOS_SRAM L=2e-08 W=2.7e-08
+ NFIN=1
mXI1/XI2/MM1 N_BLN_S<7>_XI1/XI2/MM1_d N_BL_S<7>_XI1/XI2/MM1_g
+ N_XI1/XI2/NET3_XI1/XI2/MM1_s N_VSS_XI1/XI2/MM1_b NMOS_SRAM L=2e-08 W=2.7e-08
+ NFIN=1
mXI1/XI2/MM0 N_BL_S<7>_XI1/XI2/MM0_d N_BLN_S<7>_XI1/XI2/MM0_g
+ N_XI1/XI2/NET3_XI1/XI2/MM0_s N_VSS_XI1/XI13/MM1_b NMOS_SRAM L=2e-08 W=2.7e-08
+ NFIN=1
mXI1/XI2/MM2 N_XI1/XI2/NET3_XI1/XI2/MM2_d N_SA_EN_XI1/XI2/MM2_g
+ N_VSS_XI1/XI2/MM2_s N_VSS_XI1/XI13/MM1_b NMOS_SRAM L=2e-08 W=2.7e-08 NFIN=1
mXI1/XI2/MM6 N_BL_S<7>_XI1/XI2/MM6_d N_SA_EN_XI1/XI2/MM6_g N_BL<7>_XI1/XI2/MM6_s
+ N_VDD_XI1/XI2/MM6_b PMOS_SRAM L=2e-08 W=2.7e-08 NFIN=1
mXI1/XI2/MM4 N_BLN_S<7>_XI1/XI2/MM4_d N_BL_S<7>_XI1/XI2/MM4_g
+ N_VDD_XI1/XI2/MM4_s N_VDD_XI1/XI2/MM6_b PMOS_SRAM L=2e-08 W=2.7e-08 NFIN=1
mXI1/XI2/MM3 N_BL_S<7>_XI1/XI2/MM3_d N_BLN_S<7>_XI1/XI2/MM3_g
+ N_VDD_XI1/XI2/MM3_s N_VDD_XI1/XI2/MM6_b PMOS_SRAM L=2e-08 W=2.7e-08 NFIN=1
mXI1/XI2/MM5 N_BLN_S<7>_XI1/XI2/MM5_d N_SA_EN_XI1/XI2/MM5_g
+ N_BLN<7>_XI1/XI2/MM5_s N_VDD_XI1/XI2/MM6_b PMOS_SRAM L=2e-08 W=2.7e-08 NFIN=1
mXI1/XI6/MM1 N_BLN_S<6>_XI1/XI6/MM1_d N_BL_S<6>_XI1/XI6/MM1_g
+ N_XI1/XI6/NET3_XI1/XI6/MM1_s N_VSS_XI1/XI6/MM1_b NMOS_SRAM L=2e-08 W=2.7e-08
+ NFIN=1
mXI1/XI6/MM0 N_BL_S<6>_XI1/XI6/MM0_d N_BLN_S<6>_XI1/XI6/MM0_g
+ N_XI1/XI6/NET3_XI1/XI6/MM0_s N_VSS_XI1/XI2/MM1_b NMOS_SRAM L=2e-08 W=2.7e-08
+ NFIN=1
mXI1/XI6/MM2 N_XI1/XI6/NET3_XI1/XI6/MM2_d N_SA_EN_XI1/XI6/MM2_g
+ N_VSS_XI1/XI6/MM2_s N_VSS_XI1/XI2/MM1_b NMOS_SRAM L=2e-08 W=2.7e-08 NFIN=1
mXI1/XI6/MM6 N_BL_S<6>_XI1/XI6/MM6_d N_SA_EN_XI1/XI6/MM6_g N_BL<6>_XI1/XI6/MM6_s
+ N_VDD_XI1/XI6/MM6_b PMOS_SRAM L=2e-08 W=2.7e-08 NFIN=1
mXI1/XI6/MM4 N_BLN_S<6>_XI1/XI6/MM4_d N_BL_S<6>_XI1/XI6/MM4_g
+ N_VDD_XI1/XI6/MM4_s N_VDD_XI1/XI6/MM6_b PMOS_SRAM L=2e-08 W=2.7e-08 NFIN=1
mXI1/XI6/MM3 N_BL_S<6>_XI1/XI6/MM3_d N_BLN_S<6>_XI1/XI6/MM3_g
+ N_VDD_XI1/XI6/MM3_s N_VDD_XI1/XI6/MM6_b PMOS_SRAM L=2e-08 W=2.7e-08 NFIN=1
mXI1/XI6/MM5 N_BLN_S<6>_XI1/XI6/MM5_d N_SA_EN_XI1/XI6/MM5_g
+ N_BLN<6>_XI1/XI6/MM5_s N_VDD_XI1/XI6/MM6_b PMOS_SRAM L=2e-08 W=2.7e-08 NFIN=1
mXI1/XI10/MM1 N_BLN_S<5>_XI1/XI10/MM1_d N_BL_S<5>_XI1/XI10/MM1_g
+ N_XI1/XI10/NET3_XI1/XI10/MM1_s N_VSS_XI1/XI10/MM1_b NMOS_SRAM L=2e-08
+ W=2.7e-08 NFIN=1
mXI1/XI10/MM0 N_BL_S<5>_XI1/XI10/MM0_d N_BLN_S<5>_XI1/XI10/MM0_g
+ N_XI1/XI10/NET3_XI1/XI10/MM0_s N_VSS_XI1/XI6/MM1_b NMOS_SRAM L=2e-08 W=2.7e-08
+ NFIN=1
mXI1/XI10/MM2 N_XI1/XI10/NET3_XI1/XI10/MM2_d N_SA_EN_XI1/XI10/MM2_g
+ N_VSS_XI1/XI10/MM2_s N_VSS_XI1/XI6/MM1_b NMOS_SRAM L=2e-08 W=2.7e-08 NFIN=1
mXI1/XI10/MM6 N_BL_S<5>_XI1/XI10/MM6_d N_SA_EN_XI1/XI10/MM6_g
+ N_BL<5>_XI1/XI10/MM6_s N_VDD_XI1/XI10/MM6_b PMOS_SRAM L=2e-08 W=2.7e-08 NFIN=1
mXI1/XI10/MM4 N_BLN_S<5>_XI1/XI10/MM4_d N_BL_S<5>_XI1/XI10/MM4_g
+ N_VDD_XI1/XI10/MM4_s N_VDD_XI1/XI10/MM6_b PMOS_SRAM L=2e-08 W=2.7e-08 NFIN=1
mXI1/XI10/MM3 N_BL_S<5>_XI1/XI10/MM3_d N_BLN_S<5>_XI1/XI10/MM3_g
+ N_VDD_XI1/XI10/MM3_s N_VDD_XI1/XI10/MM6_b PMOS_SRAM L=2e-08 W=2.7e-08 NFIN=1
mXI1/XI10/MM5 N_BLN_S<5>_XI1/XI10/MM5_d N_SA_EN_XI1/XI10/MM5_g
+ N_BLN<5>_XI1/XI10/MM5_s N_VDD_XI1/XI10/MM6_b PMOS_SRAM L=2e-08 W=2.7e-08
+ NFIN=1
mXI1/XI14/MM1 N_BLN_S<4>_XI1/XI14/MM1_d N_BL_S<4>_XI1/XI14/MM1_g
+ N_XI1/XI14/NET3_XI1/XI14/MM1_s N_VSS_XI1/XI14/MM1_b NMOS_SRAM L=2e-08
+ W=2.7e-08 NFIN=1
mXI1/XI14/MM0 N_BL_S<4>_XI1/XI14/MM0_d N_BLN_S<4>_XI1/XI14/MM0_g
+ N_XI1/XI14/NET3_XI1/XI14/MM0_s N_VSS_XI1/XI10/MM1_b NMOS_SRAM L=2e-08
+ W=2.7e-08 NFIN=1
mXI1/XI14/MM2 N_XI1/XI14/NET3_XI1/XI14/MM2_d N_SA_EN_XI1/XI14/MM2_g
+ N_VSS_XI1/XI14/MM2_s N_VSS_XI1/XI10/MM1_b NMOS_SRAM L=2e-08 W=2.7e-08 NFIN=1
mXI1/XI14/MM6 N_BL_S<4>_XI1/XI14/MM6_d N_SA_EN_XI1/XI14/MM6_g
+ N_BL<4>_XI1/XI14/MM6_s N_VDD_XI1/XI14/MM6_b PMOS_SRAM L=2e-08 W=2.7e-08 NFIN=1
mXI1/XI14/MM4 N_BLN_S<4>_XI1/XI14/MM4_d N_BL_S<4>_XI1/XI14/MM4_g
+ N_VDD_XI1/XI14/MM4_s N_VDD_XI1/XI14/MM6_b PMOS_SRAM L=2e-08 W=2.7e-08 NFIN=1
mXI1/XI14/MM3 N_BL_S<4>_XI1/XI14/MM3_d N_BLN_S<4>_XI1/XI14/MM3_g
+ N_VDD_XI1/XI14/MM3_s N_VDD_XI1/XI14/MM6_b PMOS_SRAM L=2e-08 W=2.7e-08 NFIN=1
mXI1/XI14/MM5 N_BLN_S<4>_XI1/XI14/MM5_d N_SA_EN_XI1/XI14/MM5_g
+ N_BLN<4>_XI1/XI14/MM5_s N_VDD_XI1/XI14/MM6_b PMOS_SRAM L=2e-08 W=2.7e-08
+ NFIN=1
mXI1/XI3/MM1 N_BLN_S<3>_XI1/XI3/MM1_d N_BL_S<3>_XI1/XI3/MM1_g
+ N_XI1/XI3/NET3_XI1/XI3/MM1_s N_VSS_XI1/XI3/MM1_b NMOS_SRAM L=2e-08 W=2.7e-08
+ NFIN=1
mXI1/XI3/MM0 N_BL_S<3>_XI1/XI3/MM0_d N_BLN_S<3>_XI1/XI3/MM0_g
+ N_XI1/XI3/NET3_XI1/XI3/MM0_s N_VSS_XI1/XI14/MM1_b NMOS_SRAM L=2e-08 W=2.7e-08
+ NFIN=1
mXI1/XI3/MM2 N_XI1/XI3/NET3_XI1/XI3/MM2_d N_SA_EN_XI1/XI3/MM2_g
+ N_VSS_XI1/XI3/MM2_s N_VSS_XI1/XI14/MM1_b NMOS_SRAM L=2e-08 W=2.7e-08 NFIN=1
mXI1/XI3/MM6 N_BL_S<3>_XI1/XI3/MM6_d N_SA_EN_XI1/XI3/MM6_g N_BL<3>_XI1/XI3/MM6_s
+ N_VDD_XI1/XI3/MM6_b PMOS_SRAM L=2e-08 W=2.7e-08 NFIN=1
mXI1/XI3/MM4 N_BLN_S<3>_XI1/XI3/MM4_d N_BL_S<3>_XI1/XI3/MM4_g
+ N_VDD_XI1/XI3/MM4_s N_VDD_XI1/XI3/MM6_b PMOS_SRAM L=2e-08 W=2.7e-08 NFIN=1
mXI1/XI3/MM3 N_BL_S<3>_XI1/XI3/MM3_d N_BLN_S<3>_XI1/XI3/MM3_g
+ N_VDD_XI1/XI3/MM3_s N_VDD_XI1/XI3/MM6_b PMOS_SRAM L=2e-08 W=2.7e-08 NFIN=1
mXI1/XI3/MM5 N_BLN_S<3>_XI1/XI3/MM5_d N_SA_EN_XI1/XI3/MM5_g
+ N_BLN<3>_XI1/XI3/MM5_s N_VDD_XI1/XI3/MM6_b PMOS_SRAM L=2e-08 W=2.7e-08 NFIN=1
mXI1/XI7/MM1 N_BLN_S<2>_XI1/XI7/MM1_d N_BL_S<2>_XI1/XI7/MM1_g
+ N_XI1/XI7/NET3_XI1/XI7/MM1_s N_VSS_XI1/XI7/MM1_b NMOS_SRAM L=2e-08 W=2.7e-08
+ NFIN=1
mXI1/XI7/MM0 N_BL_S<2>_XI1/XI7/MM0_d N_BLN_S<2>_XI1/XI7/MM0_g
+ N_XI1/XI7/NET3_XI1/XI7/MM0_s N_VSS_XI1/XI3/MM1_b NMOS_SRAM L=2e-08 W=2.7e-08
+ NFIN=1
mXI1/XI7/MM2 N_XI1/XI7/NET3_XI1/XI7/MM2_d N_SA_EN_XI1/XI7/MM2_g
+ N_VSS_XI1/XI7/MM2_s N_VSS_XI1/XI3/MM1_b NMOS_SRAM L=2e-08 W=2.7e-08 NFIN=1
mXI1/XI7/MM6 N_BL_S<2>_XI1/XI7/MM6_d N_SA_EN_XI1/XI7/MM6_g N_BL<2>_XI1/XI7/MM6_s
+ N_VDD_XI1/XI7/MM6_b PMOS_SRAM L=2e-08 W=2.7e-08 NFIN=1
mXI1/XI7/MM4 N_BLN_S<2>_XI1/XI7/MM4_d N_BL_S<2>_XI1/XI7/MM4_g
+ N_VDD_XI1/XI7/MM4_s N_VDD_XI1/XI7/MM6_b PMOS_SRAM L=2e-08 W=2.7e-08 NFIN=1
mXI1/XI7/MM3 N_BL_S<2>_XI1/XI7/MM3_d N_BLN_S<2>_XI1/XI7/MM3_g
+ N_VDD_XI1/XI7/MM3_s N_VDD_XI1/XI7/MM6_b PMOS_SRAM L=2e-08 W=2.7e-08 NFIN=1
mXI1/XI7/MM5 N_BLN_S<2>_XI1/XI7/MM5_d N_SA_EN_XI1/XI7/MM5_g
+ N_BLN<2>_XI1/XI7/MM5_s N_VDD_XI1/XI7/MM6_b PMOS_SRAM L=2e-08 W=2.7e-08 NFIN=1
mXI1/XI11/MM1 N_BLN_S<1>_XI1/XI11/MM1_d N_BL_S<1>_XI1/XI11/MM1_g
+ N_XI1/XI11/NET3_XI1/XI11/MM1_s N_VSS_XI1/XI11/MM1_b NMOS_SRAM L=2e-08
+ W=2.7e-08 NFIN=1
mXI1/XI11/MM0 N_BL_S<1>_XI1/XI11/MM0_d N_BLN_S<1>_XI1/XI11/MM0_g
+ N_XI1/XI11/NET3_XI1/XI11/MM0_s N_VSS_XI1/XI7/MM1_b NMOS_SRAM L=2e-08 W=2.7e-08
+ NFIN=1
mXI1/XI11/MM2 N_XI1/XI11/NET3_XI1/XI11/MM2_d N_SA_EN_XI1/XI11/MM2_g
+ N_VSS_XI1/XI11/MM2_s N_VSS_XI1/XI7/MM1_b NMOS_SRAM L=2e-08 W=2.7e-08 NFIN=1
mXI1/XI11/MM6 N_BL_S<1>_XI1/XI11/MM6_d N_SA_EN_XI1/XI11/MM6_g
+ N_BL<1>_XI1/XI11/MM6_s N_VDD_XI1/XI11/MM6_b PMOS_SRAM L=2e-08 W=2.7e-08 NFIN=1
mXI1/XI11/MM4 N_BLN_S<1>_XI1/XI11/MM4_d N_BL_S<1>_XI1/XI11/MM4_g
+ N_VDD_XI1/XI11/MM4_s N_VDD_XI1/XI11/MM6_b PMOS_SRAM L=2e-08 W=2.7e-08 NFIN=1
mXI1/XI11/MM3 N_BL_S<1>_XI1/XI11/MM3_d N_BLN_S<1>_XI1/XI11/MM3_g
+ N_VDD_XI1/XI11/MM3_s N_VDD_XI1/XI11/MM6_b PMOS_SRAM L=2e-08 W=2.7e-08 NFIN=1
mXI1/XI11/MM5 N_BLN_S<1>_XI1/XI11/MM5_d N_SA_EN_XI1/XI11/MM5_g
+ N_BLN<1>_XI1/XI11/MM5_s N_VDD_XI1/XI11/MM6_b PMOS_SRAM L=2e-08 W=2.7e-08
+ NFIN=1
mXI1/XI15/MM1 N_BLN_S<0>_XI1/XI15/MM1_d N_BL_S<0>_XI1/XI15/MM1_g
+ N_XI1/XI15/NET3_XI1/XI15/MM1_s N_VSS_XI1/XI15/MM1_b NMOS_SRAM L=2e-08
+ W=2.7e-08 NFIN=1
mXI1/XI15/MM0 N_BL_S<0>_XI1/XI15/MM0_d N_BLN_S<0>_XI1/XI15/MM0_g
+ N_XI1/XI15/NET3_XI1/XI15/MM0_s N_VSS_XI1/XI11/MM1_b NMOS_SRAM L=2e-08
+ W=2.7e-08 NFIN=1
mXI1/XI15/MM2 N_XI1/XI15/NET3_XI1/XI15/MM2_d N_SA_EN_XI1/XI15/MM2_g
+ N_VSS_XI1/XI15/MM2_s N_VSS_XI1/XI11/MM1_b NMOS_SRAM L=2e-08 W=2.7e-08 NFIN=1
mXI1/XI15/MM6 N_BL_S<0>_XI1/XI15/MM6_d N_SA_EN_XI1/XI15/MM6_g
+ N_BL<0>_XI1/XI15/MM6_s N_VDD_XI1/XI15/MM6_b PMOS_SRAM L=2e-08 W=2.7e-08 NFIN=1
mXI1/XI15/MM4 N_BLN_S<0>_XI1/XI15/MM4_d N_BL_S<0>_XI1/XI15/MM4_g
+ N_VDD_XI1/XI15/MM4_s N_VDD_XI1/XI15/MM6_b PMOS_SRAM L=2e-08 W=2.7e-08 NFIN=1
mXI1/XI15/MM3 N_BL_S<0>_XI1/XI15/MM3_d N_BLN_S<0>_XI1/XI15/MM3_g
+ N_VDD_XI1/XI15/MM3_s N_VDD_XI1/XI15/MM6_b PMOS_SRAM L=2e-08 W=2.7e-08 NFIN=1
mXI1/XI15/MM5 N_BLN_S<0>_XI1/XI15/MM5_d N_SA_EN_XI1/XI15/MM5_g
+ N_BLN<0>_XI1/XI15/MM5_s N_VDD_XI1/XI15/MM6_b PMOS_SRAM L=2e-08 W=2.7e-08
+ NFIN=1
mXI0/XI0/XI0/MM2 N_XI0/XI0/XI0/NET34_XI0/XI0/XI0/MM2_d
+ N_XI0/XI0/XI0/NET33_XI0/XI0/XI0/MM2_g N_VSS_XI0/XI0/XI0/MM2_s
+ N_VSS_XI1/XI0/MM0_b NMOS_SRAM L=2e-08 W=5.4e-08 NFIN=2
mXI0/XI0/XI0/MM3 N_XI0/XI0/XI0/NET33_XI0/XI0/XI0/MM3_d N_WL<0>_XI0/XI0/XI0/MM3_g
+ N_BLN<15>_XI0/XI0/XI0/MM3_s N_VSS_XI1/XI0/MM1_b NMOS_SRAM L=2e-08 W=5.4e-08
+ NFIN=2
mXI0/XI0/XI0/MM0 N_XI0/XI0/XI0/NET34_XI0/XI0/XI0/MM0_d N_WL<0>_XI0/XI0/XI0/MM0_g
+ N_BL<15>_XI0/XI0/XI0/MM0_s N_VSS_XI1/XI0/MM0_b NMOS_SRAM L=2e-08 W=5.4e-08
+ NFIN=2
mXI0/XI0/XI0/MM1 N_XI0/XI0/XI0/NET33_XI0/XI0/XI0/MM1_d
+ N_XI0/XI0/XI0/NET34_XI0/XI0/XI0/MM1_g N_VSS_XI0/XI0/XI0/MM1_s
+ N_VSS_XI1/XI0/MM1_b NMOS_SRAM L=2e-08 W=5.4e-08 NFIN=2
mXI0/XI0/XI0/MM9 N_XI0/XI0/XI0/NET36_XI0/XI0/XI0/MM9_d N_WL<1>_XI0/XI0/XI0/MM9_g
+ N_BL<15>_XI0/XI0/XI0/MM9_s N_VSS_XI1/XI0/MM0_b NMOS_SRAM L=2e-08 W=5.4e-08
+ NFIN=2
mXI0/XI0/XI0/MM6 N_XI0/XI0/XI0/NET35_XI0/XI0/XI0/MM6_d
+ N_XI0/XI0/XI0/NET36_XI0/XI0/XI0/MM6_g N_VSS_XI0/XI0/XI0/MM6_s
+ N_VSS_XI1/XI0/MM1_b NMOS_SRAM L=2e-08 W=5.4e-08 NFIN=2
mXI0/XI0/XI0/MM7 N_XI0/XI0/XI0/NET36_XI0/XI0/XI0/MM7_d
+ N_XI0/XI0/XI0/NET35_XI0/XI0/XI0/MM7_g N_VSS_XI0/XI0/XI0/MM7_s
+ N_VSS_XI1/XI0/MM0_b NMOS_SRAM L=2e-08 W=5.4e-08 NFIN=2
mXI0/XI0/XI0/MM8 N_XI0/XI0/XI0/NET35_XI0/XI0/XI0/MM8_d N_WL<1>_XI0/XI0/XI0/MM8_g
+ N_BLN<15>_XI0/XI0/XI0/MM8_s N_VSS_XI1/XI0/MM1_b NMOS_SRAM L=2e-08 W=5.4e-08
+ NFIN=2
mXI0/XI0/XI0/MM5 N_XI0/XI0/XI0/NET34_XI0/XI0/XI0/MM5_d
+ N_XI0/XI0/XI0/NET33_XI0/XI0/XI0/MM5_g N_VDD_XI0/XI0/XI0/MM5_s
+ N_VDD_XI1/XI0/MM6_b PMOS_SRAM L=2e-08 W=2.7e-08 NFIN=1
mXI0/XI0/XI0/MM4 N_XI0/XI0/XI0/NET33_XI0/XI0/XI0/MM4_d
+ N_XI0/XI0/XI0/NET34_XI0/XI0/XI0/MM4_g N_VDD_XI0/XI0/XI0/MM4_s
+ N_VDD_XI1/XI0/MM6_b PMOS_SRAM L=2e-08 W=2.7e-08 NFIN=1
mXI0/XI0/XI0/MM10 N_XI0/XI0/XI0/NET35_XI0/XI0/XI0/MM10_d
+ N_XI0/XI0/XI0/NET36_XI0/XI0/XI0/MM10_g N_VDD_XI0/XI0/XI0/MM10_s
+ N_VDD_XI1/XI0/MM6_b PMOS_SRAM L=2e-08 W=2.7e-08 NFIN=1
mXI0/XI0/XI0/MM11 N_XI0/XI0/XI0/NET36_XI0/XI0/XI0/MM11_d
+ N_XI0/XI0/XI0/NET35_XI0/XI0/XI0/MM11_g N_VDD_XI0/XI0/XI0/MM11_s
+ N_VDD_XI1/XI0/MM6_b PMOS_SRAM L=2e-08 W=2.7e-08 NFIN=1
mXI0/XI0/XI1/MM2 N_XI0/XI0/XI1/NET34_XI0/XI0/XI1/MM2_d
+ N_XI0/XI0/XI1/NET33_XI0/XI0/XI1/MM2_g N_VSS_XI0/XI0/XI1/MM2_s
+ N_VSS_XI1/XI0/MM1_b NMOS_SRAM L=2e-08 W=5.4e-08 NFIN=2
mXI0/XI0/XI1/MM3 N_XI0/XI0/XI1/NET33_XI0/XI0/XI1/MM3_d N_WL<0>_XI0/XI0/XI1/MM3_g
+ N_BLN<14>_XI0/XI0/XI1/MM3_s N_VSS_XI1/XI4/MM1_b NMOS_SRAM L=2e-08 W=5.4e-08
+ NFIN=2
mXI0/XI0/XI1/MM0 N_XI0/XI0/XI1/NET34_XI0/XI0/XI1/MM0_d N_WL<0>_XI0/XI0/XI1/MM0_g
+ N_BL<14>_XI0/XI0/XI1/MM0_s N_VSS_XI1/XI0/MM1_b NMOS_SRAM L=2e-08 W=5.4e-08
+ NFIN=2
mXI0/XI0/XI1/MM1 N_XI0/XI0/XI1/NET33_XI0/XI0/XI1/MM1_d
+ N_XI0/XI0/XI1/NET34_XI0/XI0/XI1/MM1_g N_VSS_XI0/XI0/XI1/MM1_s
+ N_VSS_XI1/XI4/MM1_b NMOS_SRAM L=2e-08 W=5.4e-08 NFIN=2
mXI0/XI0/XI1/MM9 N_XI0/XI0/XI1/NET36_XI0/XI0/XI1/MM9_d N_WL<1>_XI0/XI0/XI1/MM9_g
+ N_BL<14>_XI0/XI0/XI1/MM9_s N_VSS_XI1/XI0/MM1_b NMOS_SRAM L=2e-08 W=5.4e-08
+ NFIN=2
mXI0/XI0/XI1/MM6 N_XI0/XI0/XI1/NET35_XI0/XI0/XI1/MM6_d
+ N_XI0/XI0/XI1/NET36_XI0/XI0/XI1/MM6_g N_VSS_XI0/XI0/XI1/MM6_s
+ N_VSS_XI1/XI4/MM1_b NMOS_SRAM L=2e-08 W=5.4e-08 NFIN=2
mXI0/XI0/XI1/MM7 N_XI0/XI0/XI1/NET36_XI0/XI0/XI1/MM7_d
+ N_XI0/XI0/XI1/NET35_XI0/XI0/XI1/MM7_g N_VSS_XI0/XI0/XI1/MM7_s
+ N_VSS_XI1/XI0/MM1_b NMOS_SRAM L=2e-08 W=5.4e-08 NFIN=2
mXI0/XI0/XI1/MM8 N_XI0/XI0/XI1/NET35_XI0/XI0/XI1/MM8_d N_WL<1>_XI0/XI0/XI1/MM8_g
+ N_BLN<14>_XI0/XI0/XI1/MM8_s N_VSS_XI1/XI4/MM1_b NMOS_SRAM L=2e-08 W=5.4e-08
+ NFIN=2
mXI0/XI0/XI1/MM5 N_XI0/XI0/XI1/NET34_XI0/XI0/XI1/MM5_d
+ N_XI0/XI0/XI1/NET33_XI0/XI0/XI1/MM5_g N_VDD_XI0/XI0/XI1/MM5_s
+ N_VDD_XI1/XI4/MM6_b PMOS_SRAM L=2e-08 W=2.7e-08 NFIN=1
mXI0/XI0/XI1/MM4 N_XI0/XI0/XI1/NET33_XI0/XI0/XI1/MM4_d
+ N_XI0/XI0/XI1/NET34_XI0/XI0/XI1/MM4_g N_VDD_XI0/XI0/XI1/MM4_s
+ N_VDD_XI1/XI4/MM6_b PMOS_SRAM L=2e-08 W=2.7e-08 NFIN=1
mXI0/XI0/XI1/MM10 N_XI0/XI0/XI1/NET35_XI0/XI0/XI1/MM10_d
+ N_XI0/XI0/XI1/NET36_XI0/XI0/XI1/MM10_g N_VDD_XI0/XI0/XI1/MM10_s
+ N_VDD_XI1/XI4/MM6_b PMOS_SRAM L=2e-08 W=2.7e-08 NFIN=1
mXI0/XI0/XI1/MM11 N_XI0/XI0/XI1/NET36_XI0/XI0/XI1/MM11_d
+ N_XI0/XI0/XI1/NET35_XI0/XI0/XI1/MM11_g N_VDD_XI0/XI0/XI1/MM11_s
+ N_VDD_XI1/XI4/MM6_b PMOS_SRAM L=2e-08 W=2.7e-08 NFIN=1
mXI0/XI0/XI2/MM2 N_XI0/XI0/XI2/NET34_XI0/XI0/XI2/MM2_d
+ N_XI0/XI0/XI2/NET33_XI0/XI0/XI2/MM2_g N_VSS_XI0/XI0/XI2/MM2_s
+ N_VSS_XI1/XI4/MM1_b NMOS_SRAM L=2e-08 W=5.4e-08 NFIN=2
mXI0/XI0/XI2/MM3 N_XI0/XI0/XI2/NET33_XI0/XI0/XI2/MM3_d N_WL<0>_XI0/XI0/XI2/MM3_g
+ N_BLN<13>_XI0/XI0/XI2/MM3_s N_VSS_XI1/XI8/MM1_b NMOS_SRAM L=2e-08 W=5.4e-08
+ NFIN=2
mXI0/XI0/XI2/MM0 N_XI0/XI0/XI2/NET34_XI0/XI0/XI2/MM0_d N_WL<0>_XI0/XI0/XI2/MM0_g
+ N_BL<13>_XI0/XI0/XI2/MM0_s N_VSS_XI1/XI4/MM1_b NMOS_SRAM L=2e-08 W=5.4e-08
+ NFIN=2
mXI0/XI0/XI2/MM1 N_XI0/XI0/XI2/NET33_XI0/XI0/XI2/MM1_d
+ N_XI0/XI0/XI2/NET34_XI0/XI0/XI2/MM1_g N_VSS_XI0/XI0/XI2/MM1_s
+ N_VSS_XI1/XI8/MM1_b NMOS_SRAM L=2e-08 W=5.4e-08 NFIN=2
mXI0/XI0/XI2/MM9 N_XI0/XI0/XI2/NET36_XI0/XI0/XI2/MM9_d N_WL<1>_XI0/XI0/XI2/MM9_g
+ N_BL<13>_XI0/XI0/XI2/MM9_s N_VSS_XI1/XI4/MM1_b NMOS_SRAM L=2e-08 W=5.4e-08
+ NFIN=2
mXI0/XI0/XI2/MM6 N_XI0/XI0/XI2/NET35_XI0/XI0/XI2/MM6_d
+ N_XI0/XI0/XI2/NET36_XI0/XI0/XI2/MM6_g N_VSS_XI0/XI0/XI2/MM6_s
+ N_VSS_XI1/XI8/MM1_b NMOS_SRAM L=2e-08 W=5.4e-08 NFIN=2
mXI0/XI0/XI2/MM7 N_XI0/XI0/XI2/NET36_XI0/XI0/XI2/MM7_d
+ N_XI0/XI0/XI2/NET35_XI0/XI0/XI2/MM7_g N_VSS_XI0/XI0/XI2/MM7_s
+ N_VSS_XI1/XI4/MM1_b NMOS_SRAM L=2e-08 W=5.4e-08 NFIN=2
mXI0/XI0/XI2/MM8 N_XI0/XI0/XI2/NET35_XI0/XI0/XI2/MM8_d N_WL<1>_XI0/XI0/XI2/MM8_g
+ N_BLN<13>_XI0/XI0/XI2/MM8_s N_VSS_XI1/XI8/MM1_b NMOS_SRAM L=2e-08 W=5.4e-08
+ NFIN=2
mXI0/XI0/XI2/MM5 N_XI0/XI0/XI2/NET34_XI0/XI0/XI2/MM5_d
+ N_XI0/XI0/XI2/NET33_XI0/XI0/XI2/MM5_g N_VDD_XI0/XI0/XI2/MM5_s
+ N_VDD_XI1/XI8/MM6_b PMOS_SRAM L=2e-08 W=2.7e-08 NFIN=1
mXI0/XI0/XI2/MM4 N_XI0/XI0/XI2/NET33_XI0/XI0/XI2/MM4_d
+ N_XI0/XI0/XI2/NET34_XI0/XI0/XI2/MM4_g N_VDD_XI0/XI0/XI2/MM4_s
+ N_VDD_XI1/XI8/MM6_b PMOS_SRAM L=2e-08 W=2.7e-08 NFIN=1
mXI0/XI0/XI2/MM10 N_XI0/XI0/XI2/NET35_XI0/XI0/XI2/MM10_d
+ N_XI0/XI0/XI2/NET36_XI0/XI0/XI2/MM10_g N_VDD_XI0/XI0/XI2/MM10_s
+ N_VDD_XI1/XI8/MM6_b PMOS_SRAM L=2e-08 W=2.7e-08 NFIN=1
mXI0/XI0/XI2/MM11 N_XI0/XI0/XI2/NET36_XI0/XI0/XI2/MM11_d
+ N_XI0/XI0/XI2/NET35_XI0/XI0/XI2/MM11_g N_VDD_XI0/XI0/XI2/MM11_s
+ N_VDD_XI1/XI8/MM6_b PMOS_SRAM L=2e-08 W=2.7e-08 NFIN=1
mXI0/XI0/XI3/MM2 N_XI0/XI0/XI3/NET34_XI0/XI0/XI3/MM2_d
+ N_XI0/XI0/XI3/NET33_XI0/XI0/XI3/MM2_g N_VSS_XI0/XI0/XI3/MM2_s
+ N_VSS_XI1/XI8/MM1_b NMOS_SRAM L=2e-08 W=5.4e-08 NFIN=2
mXI0/XI0/XI3/MM3 N_XI0/XI0/XI3/NET33_XI0/XI0/XI3/MM3_d N_WL<0>_XI0/XI0/XI3/MM3_g
+ N_BLN<12>_XI0/XI0/XI3/MM3_s N_VSS_XI1/XI12/MM1_b NMOS_SRAM L=2e-08 W=5.4e-08
+ NFIN=2
mXI0/XI0/XI3/MM0 N_XI0/XI0/XI3/NET34_XI0/XI0/XI3/MM0_d N_WL<0>_XI0/XI0/XI3/MM0_g
+ N_BL<12>_XI0/XI0/XI3/MM0_s N_VSS_XI1/XI8/MM1_b NMOS_SRAM L=2e-08 W=5.4e-08
+ NFIN=2
mXI0/XI0/XI3/MM1 N_XI0/XI0/XI3/NET33_XI0/XI0/XI3/MM1_d
+ N_XI0/XI0/XI3/NET34_XI0/XI0/XI3/MM1_g N_VSS_XI0/XI0/XI3/MM1_s
+ N_VSS_XI1/XI12/MM1_b NMOS_SRAM L=2e-08 W=5.4e-08 NFIN=2
mXI0/XI0/XI3/MM9 N_XI0/XI0/XI3/NET36_XI0/XI0/XI3/MM9_d N_WL<1>_XI0/XI0/XI3/MM9_g
+ N_BL<12>_XI0/XI0/XI3/MM9_s N_VSS_XI1/XI8/MM1_b NMOS_SRAM L=2e-08 W=5.4e-08
+ NFIN=2
mXI0/XI0/XI3/MM6 N_XI0/XI0/XI3/NET35_XI0/XI0/XI3/MM6_d
+ N_XI0/XI0/XI3/NET36_XI0/XI0/XI3/MM6_g N_VSS_XI0/XI0/XI3/MM6_s
+ N_VSS_XI1/XI12/MM1_b NMOS_SRAM L=2e-08 W=5.4e-08 NFIN=2
mXI0/XI0/XI3/MM7 N_XI0/XI0/XI3/NET36_XI0/XI0/XI3/MM7_d
+ N_XI0/XI0/XI3/NET35_XI0/XI0/XI3/MM7_g N_VSS_XI0/XI0/XI3/MM7_s
+ N_VSS_XI1/XI8/MM1_b NMOS_SRAM L=2e-08 W=5.4e-08 NFIN=2
mXI0/XI0/XI3/MM8 N_XI0/XI0/XI3/NET35_XI0/XI0/XI3/MM8_d N_WL<1>_XI0/XI0/XI3/MM8_g
+ N_BLN<12>_XI0/XI0/XI3/MM8_s N_VSS_XI1/XI12/MM1_b NMOS_SRAM L=2e-08 W=5.4e-08
+ NFIN=2
mXI0/XI0/XI3/MM5 N_XI0/XI0/XI3/NET34_XI0/XI0/XI3/MM5_d
+ N_XI0/XI0/XI3/NET33_XI0/XI0/XI3/MM5_g N_VDD_XI0/XI0/XI3/MM5_s
+ N_VDD_XI1/XI12/MM6_b PMOS_SRAM L=2e-08 W=2.7e-08 NFIN=1
mXI0/XI0/XI3/MM4 N_XI0/XI0/XI3/NET33_XI0/XI0/XI3/MM4_d
+ N_XI0/XI0/XI3/NET34_XI0/XI0/XI3/MM4_g N_VDD_XI0/XI0/XI3/MM4_s
+ N_VDD_XI1/XI12/MM6_b PMOS_SRAM L=2e-08 W=2.7e-08 NFIN=1
mXI0/XI0/XI3/MM10 N_XI0/XI0/XI3/NET35_XI0/XI0/XI3/MM10_d
+ N_XI0/XI0/XI3/NET36_XI0/XI0/XI3/MM10_g N_VDD_XI0/XI0/XI3/MM10_s
+ N_VDD_XI1/XI12/MM6_b PMOS_SRAM L=2e-08 W=2.7e-08 NFIN=1
mXI0/XI0/XI3/MM11 N_XI0/XI0/XI3/NET36_XI0/XI0/XI3/MM11_d
+ N_XI0/XI0/XI3/NET35_XI0/XI0/XI3/MM11_g N_VDD_XI0/XI0/XI3/MM11_s
+ N_VDD_XI1/XI12/MM6_b PMOS_SRAM L=2e-08 W=2.7e-08 NFIN=1
mXI0/XI0/XI4/MM2 N_XI0/XI0/XI4/NET34_XI0/XI0/XI4/MM2_d
+ N_XI0/XI0/XI4/NET33_XI0/XI0/XI4/MM2_g N_VSS_XI0/XI0/XI4/MM2_s
+ N_VSS_XI1/XI12/MM1_b NMOS_SRAM L=2e-08 W=5.4e-08 NFIN=2
mXI0/XI0/XI4/MM3 N_XI0/XI0/XI4/NET33_XI0/XI0/XI4/MM3_d N_WL<0>_XI0/XI0/XI4/MM3_g
+ N_BLN<11>_XI0/XI0/XI4/MM3_s N_VSS_XI1/XI1/MM1_b NMOS_SRAM L=2e-08 W=5.4e-08
+ NFIN=2
mXI0/XI0/XI4/MM0 N_XI0/XI0/XI4/NET34_XI0/XI0/XI4/MM0_d N_WL<0>_XI0/XI0/XI4/MM0_g
+ N_BL<11>_XI0/XI0/XI4/MM0_s N_VSS_XI1/XI12/MM1_b NMOS_SRAM L=2e-08 W=5.4e-08